@<TRIPOS>MOLECULE
ALP-POS-95b75b4d-5_1
   35    37     0     0     0
SMALL
NO_CHARGES

@<TRIPOS>ATOM
      1 C1         11.9780    0.4600   23.9150 C.ar      1 <0>         0.0000
      2 C2         10.6560    0.0720   23.7350 C.ar      1 <0>         0.0000
      3 C3         12.9840   -0.1200   23.1530 C.ar      1 <0>         0.0000
      4 C4          4.6265    0.7569   18.6065 C.ar      1 <0>         0.0000
      5 C5         11.3360   -1.5050   22.0650 C.ar      1 <0>         0.0000
      6 C6          5.3611    0.9105   17.4418 C.ar      1 <0>         0.0000
      7 C7          7.2374   -0.0079   18.3980 C.ar      1 <0>         0.0000
      8 C8          5.2605    0.1881   19.7055 C.ar      1 <0>         0.0000
      9 C9         10.3220   -0.8940   22.7910 C.ar      1 <0>         0.0000
     10 C10         6.5908   -0.2043   19.6076 C.ar      1 <0>         0.0000
     11 C11        12.6400   -1.1000   22.2390 C.ar      1 <0>         0.0000
     12 C12         8.3880   -0.3240   21.3070 C.2       1 <0>         0.0000
     13 C13         3.0272   -0.3232   20.8992 C.3       1 <0>         0.0000
     14 C14         3.4599    1.0354   21.3542 C.3       1 <0>         0.0000
     15 C15         4.4935    0.0091   20.9739 C.3       1 <0>         0.0000
     16 C16         8.8810   -1.1900   22.4510 C.3       1 <0>         0.0000
     17 N1          6.6548    0.5415   17.3087 N.ar      1 <0>         0.0000
     18 N2          7.2820   -0.7860   20.6970 N.am      1 <0>         0.0000
     19 O1          8.9170    0.7530   21.0260 O.2       1 <0>         0.0000
     20 Cl1        13.8840   -1.8490   21.2740 Cl        1 <0>         0.0000
     21 H1         12.2249    1.2198   24.6546 H         1 <0>         0.0000
     22 H2          9.8763    0.5350   24.3454 H         1 <0>         0.0000
     23 H3         14.0077    0.1988   23.2842 H         1 <0>         0.0000
     24 H4          3.5898    1.0729   18.6489 H         1 <0>         0.0000
     25 H5         11.0892   -2.3009   21.3624 H         1 <0>         0.0000
     26 H6          4.9139    1.3495   16.5561 H         1 <0>         0.0000
     27 H7          8.2759   -0.2937   18.2591 H         1 <0>         0.0000
     28 H8          2.6328   -1.0031   21.6453 H         1 <0>         0.0000
     29 H9          2.5497   -0.4008   19.9300 H         1 <0>         0.0000
     30 H10         3.2749    1.8710   20.6896 H         1 <0>         0.0000
     31 H11         3.3562    1.2725   22.4064 H         1 <0>         0.0000
     32 H12         5.0497   -0.4392   21.7861 H         1 <0>         0.0000
     33 H13         8.7709   -2.2387   22.1706 H         1 <0>         0.0000
     34 H14         8.2491   -1.0157   23.3232 H         1 <0>         0.0000
     35 H15         6.8973   -1.6552   21.0612 H         1 <0>         0.0000
@<TRIPOS>BOND
     1    1    2 ar
     2    1    3 ar
     3    2    9 ar
     4    3   11 ar
     5    4    6 ar
     6    4    8 ar
     7    5    9 ar
     8    5   11 ar
     9    6   17 ar
    10    7   10 ar
    11    7   17 ar
    12    8   10 ar
    13    8   15 1
    14    9   16 1
    15   10   18 1
    16   11   20 1
    17   12   16 1
    18   12   18 am
    19   12   19 2
    20   13   14 1
    21   13   15 1
    22   14   15 1
    23    1   21 1
    24    2   22 1
    25    3   23 1
    26    4   24 1
    27    5   25 1
    28    6   26 1
    29    7   27 1
    30   13   28 1
    31   13   29 1
    32   14   30 1
    33   14   31 1
    34   15   32 1
    35   16   33 1
    36   16   34 1
    37   18   35 1
