@<TRIPOS>MOLECULE
ALP-POS-0c2c77e1-1_1
   38    40     0     0     0
SMALL
NO_CHARGES

@<TRIPOS>ATOM
      1 C1          4.3203    1.9007   23.6667 C.ar      1 <0>         0.0000
      2 C2          3.7303    0.7904   23.0629 C.ar      1 <0>         0.0000
      3 C3          5.3165    2.6116   22.9974 C.ar      1 <0>         0.0000
      4 C4         11.9780    0.4600   23.9150 C.ar      1 <0>         0.0000
      5 C5          4.1367    0.3907   21.7898 C.ar      1 <0>         0.0000
      6 C6          5.7229    2.2119   21.7243 C.ar      1 <0>         0.0000
      7 C7         10.6560    0.0720   23.7350 C.ar      1 <0>         0.0000
      8 C8         12.9840   -0.1200   23.1530 C.ar      1 <0>         0.0000
      9 C9          4.9023    1.2144   18.6908 C.ar      1 <0>         0.0000
     10 C10        11.3360   -1.5050   22.0650 C.ar      1 <0>         0.0000
     11 C11         5.3213    0.8030   17.4358 C.ar      1 <0>         0.0000
     12 C12         6.9335   -0.5706   18.3259 C.ar      1 <0>         0.0000
     13 C13         5.1330    1.1015   21.1205 C.ar      1 <0>         0.0000
     14 C14         5.5540    0.6867   19.7999 C.ar      1 <0>         0.0000
     15 C15        10.3220   -0.8940   22.7910 C.ar      1 <0>         0.0000
     16 C16         6.5902   -0.2234   19.6226 C.ar      1 <0>         0.0000
     17 C17        12.6400   -1.1000   22.2390 C.ar      1 <0>         0.0000
     18 C18         8.3880   -0.3240   21.3070 C.2       1 <0>         0.0000
     19 C19         8.8810   -1.1900   22.4510 C.3       1 <0>         0.0000
     20 N1          6.3237   -0.0791   17.2240 N.ar      1 <0>         0.0000
     21 N2          7.2820   -0.7860   20.6970 N.am      1 <0>         0.0000
     22 O1          8.9170    0.7530   21.0260 O.2       1 <0>         0.0000
     23 Cl1        13.8840   -1.8490   21.2740 Cl        1 <0>         0.0000
     24 H1          4.0025    2.2127   24.6573 H         1 <0>         0.0000
     25 H2          2.9535    0.2378   23.5832 H         1 <0>         0.0000
     26 H3          5.7753    3.4771   23.4664 H         1 <0>         0.0000
     27 H4         12.2249    1.2198   24.6546 H         1 <0>         0.0000
     28 H5          3.6670   -0.4770   21.3323 H         1 <0>         0.0000
     29 H6          6.5002    2.7761   21.2145 H         1 <0>         0.0000
     30 H7          9.8763    0.5350   24.3454 H         1 <0>         0.0000
     31 H8         14.0077    0.1988   23.2842 H         1 <0>         0.0000
     32 H9          4.0884    1.9259   18.7876 H         1 <0>         0.0000
     33 H10        11.0892   -2.3009   21.3624 H         1 <0>         0.0000
     34 H11         4.8446    1.1846   16.5387 H         1 <0>         0.0000
     35 H12         7.7342   -1.2756   18.1226 H         1 <0>         0.0000
     36 H13         8.7774   -2.2383   22.1732 H         1 <0>         0.0000
     37 H14         8.2557   -1.0153   23.3257 H         1 <0>         0.0000
     38 H15         6.8982   -1.6624   21.0679 H         1 <0>         0.0000
@<TRIPOS>BOND
     1    1    2 ar
     2    1    3 ar
     3    2    5 ar
     4    3    6 ar
     5    4    7 ar
     6    4    8 ar
     7    5   13 ar
     8    6   13 ar
     9    7   15 ar
    10    8   17 ar
    11    9   11 ar
    12    9   14 ar
    13   10   15 ar
    14   10   17 ar
    15   11   20 ar
    16   12   16 ar
    17   12   20 ar
    18   13   14 1
    19   14   16 ar
    20   15   19 1
    21   16   21 1
    22   17   23 1
    23   18   19 1
    24   18   21 am
    25   18   22 2
    26    1   24 1
    27    2   25 1
    28    3   26 1
    29    4   27 1
    30    5   28 1
    31    6   29 1
    32    7   30 1
    33    8   31 1
    34    9   32 1
    35   10   33 1
    36   11   34 1
    37   12   35 1
    38   19   36 1
    39   19   37 1
    40   21   38 1
