@<TRIPOS>MOLECULE
EDG-MED-0da5ad92-17_1
   33    34     0     0     0
SMALL
NO_CHARGES

@<TRIPOS>ATOM
      1 C1         11.9780    0.4600   23.9150 C.ar      1 <0>         0.0000
      2 C2         10.6560    0.0720   23.7350 C.ar      1 <0>         0.0000
      3 C3         12.9840   -0.1200   23.1530 C.ar      1 <0>         0.0000
      4 C4         11.3360   -1.5050   22.0650 C.ar      1 <0>         0.0000
      5 C5          4.9082    1.2516   18.6945 C.ar      1 <0>         0.0000
      6 C6          6.9307   -0.5387   18.3067 C.ar      1 <0>         0.0000
      7 C7         10.3220   -0.8940   22.7910 C.ar      1 <0>         0.0000
      8 C8          5.5592    0.7086   19.7966 C.ar      1 <0>         0.0000
      9 C9          6.5908   -0.2043   19.6076 C.ar      1 <0>         0.0000
     10 C10        12.6400   -1.1000   22.2390 C.ar      1 <0>         0.0000
     11 C11         5.3236    0.8521   17.4344 C.ar      1 <0>         0.0000
     12 C12         8.3880   -0.3240   21.3070 C.2       1 <0>         0.0000
     13 C13         5.1338    1.1221   21.1673 C.3       1 <0>         0.0000
     14 C14         8.8810   -1.1900   22.4510 C.3       1 <0>         0.0000
     15 N1          6.3214   -0.0322   17.2113 N.ar      1 <0>         0.0000
     16 N2          4.6502    1.4137   16.3212 N.pl3     1 <0>         0.0000
     17 N3          7.2820   -0.7860   20.6970 N.am      1 <0>         0.0000
     18 O1          8.9170    0.7530   21.0260 O.2       1 <0>         0.0000
     19 Cl1        13.8840   -1.8490   21.2740 Cl        1 <0>         0.0000
     20 H1         12.2249    1.2198   24.6546 H         1 <0>         0.0000
     21 H2          9.8763    0.5350   24.3454 H         1 <0>         0.0000
     22 H3         14.0077    0.1988   23.2842 H         1 <0>         0.0000
     23 H4         11.0892   -2.3009   21.3624 H         1 <0>         0.0000
     24 H5          4.1007    1.9661   18.8230 H         1 <0>         0.0000
     25 H6          7.7254   -1.2477   18.0952 H         1 <0>         0.0000
     26 H7          4.3459    0.4561   21.5375 H         1 <0>         0.0000
     27 H8          5.9759    1.0917   21.8696 H         1 <0>         0.0000
     28 H9          4.7524    2.1508   21.1704 H         1 <0>         0.0000
     29 H10         8.7709   -2.2387   22.1706 H         1 <0>         0.0000
     30 H11         8.2491   -1.0157   23.3232 H         1 <0>         0.0000
     31 H12         3.8830    2.0290   16.4830 H         1 <0>         0.0000
     32 H13         4.8974    1.1080   15.4052 H         1 <0>         0.0000
     33 H14         6.8973   -1.6552   21.0612 H         1 <0>         0.0000
@<TRIPOS>BOND
     1    1    2 ar
     2    1    3 ar
     3    2    7 ar
     4    3   10 ar
     5    4    7 ar
     6    4   10 ar
     7    5    8 ar
     8    5   11 ar
     9    6    9 ar
    10    6   15 ar
    11    7   14 1
    12    8    9 ar
    13    8   13 1
    14    9   17 1
    15   10   19 1
    16   11   15 ar
    17   11   16 1
    18   12   14 1
    19   12   17 am
    20   12   18 2
    21    1   20 1
    22    2   21 1
    23    3   22 1
    24    4   23 1
    25    5   24 1
    26    6   25 1
    27   13   26 1
    28   13   27 1
    29   13   28 1
    30   14   29 1
    31   14   30 1
    32   16   31 1
    33   16   32 1
    34   17   33 1
