@<TRIPOS>MOLECULE
EDG-MED-0da5ad92-2_1
   28    29     0     0     0
SMALL
NO_CHARGES

@<TRIPOS>ATOM
      1 C1         11.9780    0.4600   23.9150 C.ar      1 <0>         0.0000
      2 C2          4.6067    0.7488   18.6383 C.ar      1 <0>         0.0000
      3 C3         10.6560    0.0720   23.7350 C.ar      1 <0>         0.0000
      4 C4          5.2596    0.1795   19.7259 C.ar      1 <0>         0.0000
      5 C5         12.9840   -0.1200   23.1530 C.ar      1 <0>         0.0000
      6 C6         11.3360   -1.5050   22.0650 C.ar      1 <0>         0.0000
      7 C7          5.3237    0.9114   17.4639 C.ar      1 <0>         0.0000
      8 C8          7.2190    0.0008   18.3898 C.ar      1 <0>         0.0000
      9 C9         10.3220   -0.8940   22.7910 C.ar      1 <0>         0.0000
     10 C10         6.5908   -0.2043   19.6076 C.ar      1 <0>         0.0000
     11 C11        12.6400   -1.1000   22.2390 C.ar      1 <0>         0.0000
     12 C12         8.3880   -0.3240   21.3070 C.2       1 <0>         0.0000
     13 C13         8.8810   -1.1900   22.4510 C.3       1 <0>         0.0000
     14 N1          6.6177    0.5508   17.3110 N.ar      1 <0>         0.0000
     15 N2          7.2820   -0.7860   20.6970 N.am      1 <0>         0.0000
     16 O1          8.9170    0.7530   21.0260 O.2       1 <0>         0.0000
     17 Cl1        13.8840   -1.8490   21.2740 Cl        1 <0>         0.0000
     18 H1         12.2249    1.2198   24.6546 H         1 <0>         0.0000
     19 H2          3.5693    1.0554   18.7078 H         1 <0>         0.0000
     20 H3          9.8763    0.5350   24.3454 H         1 <0>         0.0000
     21 H4          4.7222    0.0397   20.6602 H         1 <0>         0.0000
     22 H5         14.0077    0.1988   23.2842 H         1 <0>         0.0000
     23 H6         11.0892   -2.3009   21.3624 H         1 <0>         0.0000
     24 H7          4.8601    1.3513   16.5871 H         1 <0>         0.0000
     25 H8          8.2571   -0.2783   18.2360 H         1 <0>         0.0000
     26 H9          8.7709   -2.2387   22.1706 H         1 <0>         0.0000
     27 H10         8.2491   -1.0157   23.3232 H         1 <0>         0.0000
     28 H11         6.8973   -1.6552   21.0612 H         1 <0>         0.0000
@<TRIPOS>BOND
     1    1    3 ar
     2    1    5 ar
     3    2    4 ar
     4    2    7 ar
     5    3    9 ar
     6    4   10 ar
     7    5   11 ar
     8    6    9 ar
     9    6   11 ar
    10    7   14 ar
    11    8   10 ar
    12    8   14 ar
    13    9   13 1
    14   10   15 1
    15   11   17 1
    16   12   13 1
    17   12   15 am
    18   12   16 2
    19    1   18 1
    20    2   19 1
    21    3   20 1
    22    4   21 1
    23    5   22 1
    24    6   23 1
    25    7   24 1
    26    8   25 1
    27   13   26 1
    28   13   27 1
    29   15   28 1
