@<TRIPOS>MOLECULE
EDG-MED-0da5ad92-15_1
   30    31     0     0     0
SMALL
NO_CHARGES

@<TRIPOS>ATOM
      1 C1         11.9780    0.4600   23.9150 C.ar      1 <0>         0.0000
      2 C2         10.6560    0.0720   23.7350 C.ar      1 <0>         0.0000
      3 C3         12.9840   -0.1200   23.1530 C.ar      1 <0>         0.0000
      4 C4          4.5115    0.7537   18.8599 C.ar      1 <0>         0.0000
      5 C5         11.3360   -1.5050   22.0650 C.ar      1 <0>         0.0000
      6 C6          5.1831    1.0155   17.6827 C.ar      1 <0>         0.0000
      7 C7         10.3220   -0.8940   22.7910 C.ar      1 <0>         0.0000
      8 C8          5.2142    0.1449   19.8848 C.ar      1 <0>         0.0000
      9 C9         12.6400   -1.1000   22.2390 C.ar      1 <0>         0.0000
     10 C10         6.5418   -0.1622   19.6645 C.ar      1 <0>         0.0000
     11 C11         8.3880   -0.3240   21.3070 C.2       1 <0>         0.0000
     12 C12         4.5262   -0.1552   21.1729 C.3       1 <0>         0.0000
     13 C13         8.8810   -1.1900   22.4510 C.3       1 <0>         0.0000
     14 N1          6.4830    0.7040   17.4948 N.ar      1 <0>         0.0000
     15 N2          7.1735    0.1052   18.5020 N.ar      1 <0>         0.0000
     16 N3          7.2820   -0.7860   20.6970 N.am      1 <0>         0.0000
     17 O1          8.9170    0.7530   21.0260 O.2       1 <0>         0.0000
     18 Cl1        13.8840   -1.8490   21.2740 Cl        1 <0>         0.0000
     19 H1         12.2249    1.2198   24.6546 H         1 <0>         0.0000
     20 H2          9.8763    0.5350   24.3454 H         1 <0>         0.0000
     21 H3         14.0077    0.1988   23.2842 H         1 <0>         0.0000
     22 H4          3.4659    1.0208   18.9688 H         1 <0>         0.0000
     23 H5         11.0892   -2.3009   21.3624 H         1 <0>         0.0000
     24 H6          4.6891    1.4906   16.8433 H         1 <0>         0.0000
     25 H7          4.0763   -1.1553   21.1424 H         1 <0>         0.0000
     26 H8          5.2259   -0.1146   22.0180 H         1 <0>         0.0000
     27 H9          3.7340    0.5760   21.3819 H         1 <0>         0.0000
     28 H10         8.7709   -2.2387   22.1706 H         1 <0>         0.0000
     29 H11         8.2491   -1.0157   23.3232 H         1 <0>         0.0000
     30 H12         6.9372   -1.6894   21.0149 H         1 <0>         0.0000
@<TRIPOS>BOND
     1    1    2 ar
     2    1    3 ar
     3    2    7 ar
     4    3    9 ar
     5    4    6 ar
     6    4    8 ar
     7    5    7 ar
     8    5    9 ar
     9    6   14 ar
    10    7   13 1
    11    8   10 ar
    12    8   12 1
    13    9   18 1
    14   10   15 ar
    15   10   16 1
    16   11   13 1
    17   11   16 am
    18   11   17 2
    19   14   15 ar
    20    1   19 1
    21    2   20 1
    22    3   21 1
    23    4   22 1
    24    5   23 1
    25    6   24 1
    26   12   25 1
    27   12   26 1
    28   12   27 1
    29   13   28 1
    30   13   29 1
    31   16   30 1
