@<TRIPOS>MOLECULE
EDJ-MED-c8e7a002-9_1
   32    34     0     0     0
SMALL
NO_CHARGES

@<TRIPOS>ATOM
      1 C1         11.9780    0.4600   23.9150 C.ar      1 <0>         0.0000
      2 C2         10.6560    0.0720   23.7350 C.ar      1 <0>         0.0000
      3 C3          3.5974    1.1868   18.2353 C.ar      1 <0>         0.0000
      4 C4          2.6152    1.0944   19.2268 C.ar      1 <0>         0.0000
      5 C5         12.9840   -0.1200   23.1530 C.ar      1 <0>         0.0000
      6 C6          4.1819    0.0660   20.7794 C.ar      1 <0>         0.0000
      7 C7         11.3360   -1.5050   22.0650 C.ar      1 <0>         0.0000
      8 C8          5.1793    0.1521   19.7938 C.ar      1 <0>         0.0000
      9 C9         10.3220   -0.8940   22.7910 C.ar      1 <0>         0.0000
     10 C10         4.8683    0.7048   18.5565 C.ar      1 <0>         0.0000
     11 C11         2.9004    0.5439   20.4778 C.ar      1 <0>         0.0000
     12 C12        12.6400   -1.1000   22.2390 C.ar      1 <0>         0.0000
     13 C13         6.5430   -0.1966   19.6884 C.2       1 <0>         0.0000
     14 C14         8.3880   -0.3240   21.3070 C.2       1 <0>         0.0000
     15 C15         8.8810   -1.1900   22.4510 C.3       1 <0>         0.0000
     16 N1          7.0638    0.1027   18.4963 N.2       1 <0>         0.0000
     17 N2          6.0292    0.6459   17.8336 N.pl3     1 <0>         0.0000
     18 N3          7.2820   -0.7860   20.6970 N.am      1 <0>         0.0000
     19 O1          8.9170    0.7530   21.0260 O.2       1 <0>         0.0000
     20 F1          1.9344    0.4698   21.4039 F         1 <0>         0.0000
     21 Cl1        13.8840   -1.8490   21.2740 Cl        1 <0>         0.0000
     22 H1         12.2249    1.2198   24.6546 H         1 <0>         0.0000
     23 H2          9.8763    0.5350   24.3454 H         1 <0>         0.0000
     24 H3          3.3773    1.6137   17.2632 H         1 <0>         0.0000
     25 H4          1.6122    1.4578   19.0197 H         1 <0>         0.0000
     26 H5         14.0077    0.1988   23.2842 H         1 <0>         0.0000
     27 H6          4.3893   -0.3596   21.7565 H         1 <0>         0.0000
     28 H7         11.0892   -2.3009   21.3624 H         1 <0>         0.0000
     29 H8          8.7774   -2.2383   22.1732 H         1 <0>         0.0000
     30 H9          8.2557   -1.0153   23.3257 H         1 <0>         0.0000
     31 H10         6.1826    0.9595   16.8833 H         1 <0>         0.0000
     32 H11         6.9394   -1.7028   21.0257 H         1 <0>         0.0000
@<TRIPOS>BOND
     1    1    2 ar
     2    1    5 ar
     3    2    9 ar
     4    3    4 ar
     5    3   10 ar
     6    4   11 ar
     7    5   12 ar
     8    6    8 ar
     9    6   11 ar
    10    7    9 ar
    11    7   12 ar
    12    8   10 ar
    13    8   13 1
    14    9   15 1
    15   10   17 1
    16   11   20 1
    17   12   21 1
    18   13   16 2
    19   13   18 1
    20   14   15 1
    21   14   18 am
    22   14   19 2
    23   16   17 1
    24    1   22 1
    25    2   23 1
    26    3   24 1
    27    4   25 1
    28    5   26 1
    29    6   27 1
    30    7   28 1
    31   15   29 1
    32   15   30 1
    33   17   31 1
    34   18   32 1
