@<TRIPOS>MOLECULE
EDJ-MED-00c1612e-1_1
   38    40     0     0     0
SMALL
NO_CHARGES

@<TRIPOS>ATOM
      1 C1         11.9780    0.4600   23.9150 C.ar      1 <0>         0.0000
      2 C2          3.8518    2.1350   18.7974 C.ar      1 <0>         0.0000
      3 C3         10.6560    0.0720   23.7350 C.ar      1 <0>         0.0000
      4 C4          3.4434    2.5374   20.0688 C.ar      1 <0>         0.0000
      5 C5         12.9840   -0.1200   23.1530 C.ar      1 <0>         0.0000
      6 C6          5.1217    1.1107   21.0634 C.ar      1 <0>         0.0000
      7 C7         11.3360   -1.5050   22.0650 C.ar      1 <0>         0.0000
      8 C8          5.3512    0.7771   17.4011 C.ar      1 <0>         0.0000
      9 C9          6.9505   -0.5831   18.3322 C.ar      1 <0>         0.0000
     10 C10         4.9021    1.2140   18.6489 C.ar      1 <0>         0.0000
     11 C11         5.5460    0.6944   19.7909 C.ar      1 <0>         0.0000
     12 C12        10.3220   -0.8940   22.7910 C.ar      1 <0>         0.0000
     13 C13         6.5902   -0.2221   19.6216 C.ar      1 <0>         0.0000
     14 C14         4.0769    2.0264   21.1992 C.ar      1 <0>         0.0000
     15 C15        12.6400   -1.1000   22.2390 C.ar      1 <0>         0.0000
     16 C16         8.3880   -0.3240   21.3070 C.2       1 <0>         0.0000
     17 C17         4.3658    1.8588   23.5538 C.3       1 <0>         0.0000
     18 C18         8.8810   -1.1900   22.4510 C.3       1 <0>         0.0000
     19 N1          6.3576   -0.1069   17.2167 N.ar      1 <0>         0.0000
     20 N2          7.2820   -0.7860   20.6970 N.am      1 <0>         0.0000
     21 O1          8.9170    0.7530   21.0260 O.2       1 <0>         0.0000
     22 O2          3.6750    2.4202   22.4391 O.3       1 <0>         0.0000
     23 Cl1        13.8840   -1.8490   21.2740 Cl        1 <0>         0.0000
     24 H1         12.2249    1.2198   24.6546 H         1 <0>         0.0000
     25 H2          3.3460    2.5441   17.9259 H         1 <0>         0.0000
     26 H3          9.8763    0.5350   24.3454 H         1 <0>         0.0000
     27 H4          2.6279    3.2480   20.1713 H         1 <0>         0.0000
     28 H5         14.0077    0.1988   23.2842 H         1 <0>         0.0000
     29 H6          5.5961    0.7309   21.9660 H         1 <0>         0.0000
     30 H7         11.0892   -2.3009   21.3624 H         1 <0>         0.0000
     31 H8          4.8980    1.1378   16.4817 H         1 <0>         0.0000
     32 H9          7.7540   -1.2904   18.1477 H         1 <0>         0.0000
     33 H10         3.9466    2.2565   24.4812 H         1 <0>         0.0000
     34 H11         5.4285    2.1051   23.4867 H         1 <0>         0.0000
     35 H12         4.2437    0.7731   23.5376 H         1 <0>         0.0000
     36 H13         8.7774   -2.2383   22.1732 H         1 <0>         0.0000
     37 H14         8.2557   -1.0153   23.3257 H         1 <0>         0.0000
     38 H15         6.8981   -1.6619   21.0675 H         1 <0>         0.0000
@<TRIPOS>BOND
     1    1    3 ar
     2    1    5 ar
     3    2    4 ar
     4    2   10 ar
     5    3   12 ar
     6    4   14 ar
     7    5   15 ar
     8    6   11 ar
     9    6   14 ar
    10    7   12 ar
    11    7   15 ar
    12    8   10 ar
    13    8   19 ar
    14    9   13 ar
    15    9   19 ar
    16   10   11 ar
    17   11   13 ar
    18   12   18 1
    19   13   20 1
    20   14   22 1
    21   15   23 1
    22   16   18 1
    23   16   20 am
    24   16   21 2
    25   17   22 1
    26    1   24 1
    27    2   25 1
    28    3   26 1
    29    4   27 1
    30    5   28 1
    31    6   29 1
    32    7   30 1
    33    8   31 1
    34    9   32 1
    35   17   33 1
    36   17   34 1
    37   17   35 1
    38   18   36 1
    39   18   37 1
    40   20   38 1
