@<TRIPOS>MOLECULE
EDJ-MED-c8e7a002-14_1
   31    33     0     0     0
SMALL
NO_CHARGES

@<TRIPOS>ATOM
      1 C1         11.9780    0.4600   23.9150 C.ar      1 <0>         0.0000
      2 C2          4.4772    3.3204   19.3054 C.ar      1 <0>         0.0000
      3 C3         10.6560    0.0720   23.7350 C.ar      1 <0>         0.0000
      4 C4          4.5541    2.3843   18.2772 C.ar      1 <0>         0.0000
      5 C5         12.9840   -0.1200   23.1530 C.ar      1 <0>         0.0000
      6 C6         11.3360   -1.5050   22.0650 C.ar      1 <0>         0.0000
      7 C7          5.1222    3.0595   20.5096 C.ar      1 <0>         0.0000
      8 C8         10.3220   -0.8940   22.7910 C.ar      1 <0>         0.0000
      9 C9          5.9072    1.0528   19.7883 C.ar      1 <0>         0.0000
     10 C10         5.2922    1.2387   18.5585 C.ar      1 <0>         0.0000
     11 C11        12.6400   -1.1000   22.2390 C.ar      1 <0>         0.0000
     12 C12         6.5430   -0.1975   19.6891 C.2       1 <0>         0.0000
     13 C13         8.3880   -0.3240   21.3070 C.2       1 <0>         0.0000
     14 C14         8.8810   -1.1900   22.4510 C.3       1 <0>         0.0000
     15 N1          5.8439    1.9512   20.8002 N.ar      1 <0>         0.0000
     16 N2          6.3554   -0.7715   18.4970 N.2       1 <0>         0.0000
     17 N3          5.5952    0.1205   17.8349 N.pl3     1 <0>         0.0000
     18 N4          7.2820   -0.7860   20.6970 N.am      1 <0>         0.0000
     19 O1          8.9170    0.7530   21.0260 O.2       1 <0>         0.0000
     20 Cl1        13.8840   -1.8490   21.2740 Cl        1 <0>         0.0000
     21 H1         12.2249    1.2198   24.6546 H         1 <0>         0.0000
     22 H2          3.9209    4.2419   19.1679 H         1 <0>         0.0000
     23 H3          9.8763    0.5350   24.3454 H         1 <0>         0.0000
     24 H4          4.0683    2.5403   17.3216 H         1 <0>         0.0000
     25 H5         14.0077    0.1988   23.2842 H         1 <0>         0.0000
     26 H6         11.0892   -2.3009   21.3624 H         1 <0>         0.0000
     27 H7          5.0691    3.7849   21.3173 H         1 <0>         0.0000
     28 H8          8.7774   -2.2383   22.1732 H         1 <0>         0.0000
     29 H9          8.2557   -1.0153   23.3257 H         1 <0>         0.0000
     30 H10         5.3178   -0.0990   16.8862 H         1 <0>         0.0000
     31 H11         6.9395   -1.7031   21.0260 H         1 <0>         0.0000
@<TRIPOS>BOND
     1    1    3 ar
     2    1    5 ar
     3    2    4 ar
     4    2    7 ar
     5    3    8 ar
     6    4   10 ar
     7    5   11 ar
     8    6    8 ar
     9    6   11 ar
    10    7   15 ar
    11    8   14 1
    12    9   10 ar
    13    9   12 1
    14    9   15 ar
    15   10   17 1
    16   11   20 1
    17   12   16 2
    18   12   18 1
    19   13   14 1
    20   13   18 am
    21   13   19 2
    22   16   17 1
    23    1   21 1
    24    2   22 1
    25    3   23 1
    26    4   24 1
    27    5   25 1
    28    6   26 1
    29    7   27 1
    30   14   28 1
    31   14   29 1
    32   17   30 1
    33   18   31 1
