@<TRIPOS>MOLECULE
EDJ-MED-c8e7a002-6_1
   35    37     0     0     0
SMALL
NO_CHARGES

@<TRIPOS>ATOM
      1 C1         11.9780    0.4600   23.9150 C.ar      1 <0>         0.0000
      2 C2         10.6560    0.0720   23.7350 C.ar      1 <0>         0.0000
      3 C3         12.9840   -0.1200   23.1530 C.ar      1 <0>         0.0000
      4 C4         11.3360   -1.5050   22.0650 C.ar      1 <0>         0.0000
      5 C5          5.4177    0.9283   20.4831 C.2       1 <0>         0.0000
      6 C6         10.3220   -0.8940   22.7910 C.ar      1 <0>         0.0000
      7 C7         12.6400   -1.1000   22.2390 C.ar      1 <0>         0.0000
      8 C8          4.8458    1.8055   21.4590 C.2       1 <0>         0.0000
      9 C9          4.6734    1.2670   19.3755 C.2       1 <0>         0.0000
     10 C10         6.2693   -0.0307   20.0591 C.2       1 <0>         0.0000
     11 C11         8.3880   -0.3240   21.3070 C.2       1 <0>         0.0000
     12 C12         5.2230    1.9236   22.8783 C.3       1 <0>         0.0000
     13 C13         2.8137    2.8316   18.7361 C.3       1 <0>         0.0000
     14 C14         8.8810   -1.1900   22.4510 C.3       1 <0>         0.0000
     15 N1          3.8411    2.6003   20.9629 N.2       1 <0>         0.0000
     16 N2          4.9327    0.6453   18.2715 N.2       1 <0>         0.0000
     17 N3          5.9485   -0.1825   18.7020 N.pl3     1 <0>         0.0000
     18 N4          3.7576    2.2338   19.6416 N.pl3     1 <0>         0.0000
     19 N5          7.2820   -0.7860   20.6970 N.am      1 <0>         0.0000
     20 O1          8.9170    0.7530   21.0260 O.2       1 <0>         0.0000
     21 Cl1        13.8840   -1.8490   21.2740 Cl        1 <0>         0.0000
     22 H1         12.2249    1.2198   24.6546 H         1 <0>         0.0000
     23 H2          9.8763    0.5350   24.3454 H         1 <0>         0.0000
     24 H3         14.0077    0.1988   23.2842 H         1 <0>         0.0000
     25 H4         11.0892   -2.3009   21.3624 H         1 <0>         0.0000
     26 H5          6.0164    2.6770   23.0200 H         1 <0>         0.0000
     27 H6          4.3683    2.2167   23.5134 H         1 <0>         0.0000
     28 H7          5.5932    0.9685   23.2916 H         1 <0>         0.0000
     29 H8          1.8937    2.2422   18.7704 H         1 <0>         0.0000
     30 H9          2.6185    3.8632   19.0423 H         1 <0>         0.0000
     31 H10         3.2320    2.8311   17.7257 H         1 <0>         0.0000
     32 H11         8.7709   -2.2387   22.1706 H         1 <0>         0.0000
     33 H12         8.2491   -1.0157   23.3232 H         1 <0>         0.0000
     34 H13         6.3734   -0.8147   18.0351 H         1 <0>         0.0000
     35 H14         7.1590   -1.7964   20.6938 H         1 <0>         0.0000
@<TRIPOS>BOND
     1    1    2 ar
     2    1    3 ar
     3    2    6 ar
     4    3    7 ar
     5    4    6 ar
     6    4    7 ar
     7    5    8 1
     8    5    9 1
     9    5   10 2
    10    6   14 1
    11    7   21 1
    12    8   12 1
    13    8   15 2
    14    9   16 2
    15    9   18 1
    16   10   17 1
    17   10   19 1
    18   11   14 1
    19   11   19 am
    20   11   20 2
    21   13   18 1
    22   15   18 1
    23   16   17 1
    24    1   22 1
    25    2   23 1
    26    3   24 1
    27    4   25 1
    28   12   26 1
    29   12   27 1
    30   12   28 1
    31   13   29 1
    32   13   30 1
    33   13   31 1
    34   14   32 1
    35   14   33 1
    36   17   34 1
    37   19   35 1
