@<TRIPOS>MOLECULE
EDJ-MED-50fe53e8-2_1
   33    35     0     0     0
SMALL
NO_CHARGES

@<TRIPOS>ATOM
      1 C1          5.5394    3.1211   20.8448 C.ar      1 <0>         0.0000
      2 C2          4.8704    3.5915   19.7212 C.ar      1 <0>         0.0000
      3 C3         11.9780    0.4600   23.9150 C.ar      1 <0>         0.0000
      4 C4          6.1153    1.8536   20.8218 C.ar      1 <0>         0.0000
      5 C5         10.6560    0.0720   23.7350 C.ar      1 <0>         0.0000
      6 C6          4.7792    2.7936   18.5786 C.ar      1 <0>         0.0000
      7 C7         12.9840   -0.1200   23.1530 C.ar      1 <0>         0.0000
      8 C8         11.3360   -1.5050   22.0650 C.ar      1 <0>         0.0000
      9 C9          6.4603   -0.9523   18.4604 C.ar      1 <0>         0.0000
     10 C10         6.0229    1.0515   19.6717 C.ar      1 <0>         0.0000
     11 C11        10.3220   -0.8940   22.7910 C.ar      1 <0>         0.0000
     12 C12         5.3472    1.5231   18.5331 C.ar      1 <0>         0.0000
     13 C13         6.5902   -0.2219   19.6214 C.ar      1 <0>         0.0000
     14 C14        12.6400   -1.1000   22.2390 C.ar      1 <0>         0.0000
     15 C15         8.3880   -0.3240   21.3070 C.2       1 <0>         0.0000
     16 C16         8.8810   -1.1900   22.4510 C.3       1 <0>         0.0000
     17 N1          5.8100   -0.4833   17.3819 N.ar      1 <0>         0.0000
     18 N2          5.2521    0.7654   17.4273 N.ar      1 <0>         0.0000
     19 N3          7.2820   -0.7860   20.6970 N.am      1 <0>         0.0000
     20 O1          8.9170    0.7530   21.0260 O.2       1 <0>         0.0000
     21 Cl1        13.8840   -1.8490   21.2740 Cl        1 <0>         0.0000
     22 H1          5.6132    3.7374   21.7355 H         1 <0>         0.0000
     23 H2          4.4179    4.5787   19.7311 H         1 <0>         0.0000
     24 H3         12.2249    1.2198   24.6546 H         1 <0>         0.0000
     25 H4          6.6331    1.5108   21.7146 H         1 <0>         0.0000
     26 H5          9.8763    0.5350   24.3454 H         1 <0>         0.0000
     27 H6          4.2507    3.1823   17.7101 H         1 <0>         0.0000
     28 H7         14.0077    0.1988   23.2842 H         1 <0>         0.0000
     29 H8         11.0892   -2.3009   21.3624 H         1 <0>         0.0000
     30 H9          6.8756   -1.9483   18.3532 H         1 <0>         0.0000
     31 H10         8.7774   -2.2383   22.1732 H         1 <0>         0.0000
     32 H11         8.2557   -1.0153   23.3257 H         1 <0>         0.0000
     33 H12         6.8981   -1.6619   21.0674 H         1 <0>         0.0000
@<TRIPOS>BOND
     1    1    2 ar
     2    1    4 ar
     3    2    6 ar
     4    3    5 ar
     5    3    7 ar
     6    4   10 ar
     7    5   11 ar
     8    6   12 ar
     9    7   14 ar
    10    8   11 ar
    11    8   14 ar
    12    9   13 ar
    13    9   17 ar
    14   10   12 ar
    15   10   13 ar
    16   11   16 1
    17   12   18 ar
    18   13   19 1
    19   14   21 1
    20   15   16 1
    21   15   19 am
    22   15   20 2
    23   17   18 ar
    24    1   22 1
    25    2   23 1
    26    3   24 1
    27    4   25 1
    28    5   26 1
    29    6   27 1
    30    7   28 1
    31    8   29 1
    32    9   30 1
    33   16   31 1
    34   16   32 1
    35   19   33 1
