@<TRIPOS>MOLECULE
EDJ-MED-c8e7a002-15_1
   31    33     0     0     0
SMALL
NO_CHARGES

@<TRIPOS>ATOM
      1 C1         11.9780    0.4600   23.9150 C.ar      1 <0>         0.0000
      2 C2         10.6560    0.0720   23.7350 C.ar      1 <0>         0.0000
      3 C3         12.9840   -0.1200   23.1530 C.ar      1 <0>         0.0000
      4 C4          4.5481    2.3329   18.1851 C.ar      1 <0>         0.0000
      5 C5         11.3360   -1.5050   22.0650 C.ar      1 <0>         0.0000
      6 C6          4.4592    3.2779   19.1971 C.ar      1 <0>         0.0000
      7 C7          5.8978    1.0552   19.7661 C.ar      1 <0>         0.0000
      8 C8         10.3220   -0.8940   22.7910 C.ar      1 <0>         0.0000
      9 C9          5.2956    1.2119   18.5238 C.ar      1 <0>         0.0000
     10 C10        12.6400   -1.1000   22.2390 C.ar      1 <0>         0.0000
     11 C11         6.5430   -0.1966   19.6885 C.2       1 <0>         0.0000
     12 C12         5.7487    2.0635   20.7184 C.ar      1 <0>         0.0000
     13 C13         8.3880   -0.3240   21.3070 C.2       1 <0>         0.0000
     14 C14         8.8810   -1.1900   22.4510 C.3       1 <0>         0.0000
     15 N1          5.0264    3.1726   20.4235 N.ar      1 <0>         0.0000
     16 N2          6.3731   -0.7938   18.5065 N.2       1 <0>         0.0000
     17 N3          5.6159    0.0809   17.8230 N.pl3     1 <0>         0.0000
     18 N4          7.2820   -0.7860   20.6970 N.am      1 <0>         0.0000
     19 O1          8.9170    0.7530   21.0260 O.2       1 <0>         0.0000
     20 Cl1        13.8840   -1.8490   21.2740 Cl        1 <0>         0.0000
     21 Br1         6.5205    1.9643   22.4441 Br        1 <0>         0.0000
     22 H1         12.2249    1.2198   24.6546 H         1 <0>         0.0000
     23 H2          9.8763    0.5350   24.3454 H         1 <0>         0.0000
     24 H3         14.0077    0.1988   23.2842 H         1 <0>         0.0000
     25 H4          4.0788    2.4597   17.2190 H         1 <0>         0.0000
     26 H5         11.0892   -2.3009   21.3624 H         1 <0>         0.0000
     27 H6          3.8995    4.1950   19.0366 H         1 <0>         0.0000
     28 H7          8.7774   -2.2383   22.1732 H         1 <0>         0.0000
     29 H8          8.2557   -1.0153   23.3257 H         1 <0>         0.0000
     30 H9          5.3505   -0.1555   16.8752 H         1 <0>         0.0000
     31 H10         6.9394   -1.7028   21.0257 H         1 <0>         0.0000
@<TRIPOS>BOND
     1    1    2 ar
     2    1    3 ar
     3    2    8 ar
     4    3   10 ar
     5    4    6 ar
     6    4    9 ar
     7    5    8 ar
     8    5   10 ar
     9    6   15 ar
    10    7    9 ar
    11    7   11 1
    12    7   12 ar
    13    8   14 1
    14    9   17 1
    15   10   20 1
    16   11   16 2
    17   11   18 1
    18   12   15 ar
    19   12   21 1
    20   13   14 1
    21   13   18 am
    22   13   19 2
    23   16   17 1
    24    1   22 1
    25    2   23 1
    26    3   24 1
    27    4   25 1
    28    5   26 1
    29    6   27 1
    30   14   28 1
    31   14   29 1
    32   17   30 1
    33   18   31 1
