@<TRIPOS>MOLECULE
EDJ-MED-c8e7a002-5_1
   37    39     0     0     0
SMALL
NO_CHARGES

@<TRIPOS>ATOM
      1 C1         11.9780    0.4600   23.9150 C.ar      1 <0>         0.0000
      2 C2         10.6560    0.0720   23.7350 C.ar      1 <0>         0.0000
      3 C3         12.9840   -0.1200   23.1530 C.ar      1 <0>         0.0000
      4 C4         11.3360   -1.5050   22.0650 C.ar      1 <0>         0.0000
      5 C5          2.9073    0.5828   20.3688 C.ar      1 <0>         0.0000
      6 C6          5.1817    0.1536   19.7875 C.ar      1 <0>         0.0000
      7 C7         10.3220   -0.8940   22.7910 C.ar      1 <0>         0.0000
      8 C8          4.1573    0.0874   20.7401 C.ar      1 <0>         0.0000
      9 C9         12.6400   -1.1000   22.2390 C.ar      1 <0>         0.0000
     10 C10         2.7444    1.1090   19.0916 C.ar      1 <0>         0.0000
     11 C11         4.8837    0.7033   18.5504 C.ar      1 <0>         0.0000
     12 C12         6.5430   -0.1967   19.6885 C.2       1 <0>         0.0000
     13 C13         8.3880   -0.3240   21.3070 C.2       1 <0>         0.0000
     14 C14         4.3384   -0.4779   22.1101 C.3       1 <0>         0.0000
     15 C15         8.8810   -1.1900   22.4510 C.3       1 <0>         0.0000
     16 C16         1.3983    1.6356   18.7084 C.3       1 <0>         0.0000
     17 N1          3.7025    1.1949   18.1372 N.ar      1 <0>         0.0000
     18 N2          7.0694    0.1015   18.4961 N.2       1 <0>         0.0000
     19 N3          6.0378    0.6468   17.8263 N.pl3     1 <0>         0.0000
     20 N4          7.2820   -0.7860   20.6970 N.am      1 <0>         0.0000
     21 O1          8.9170    0.7530   21.0260 O.2       1 <0>         0.0000
     22 F1          0.4691    1.5265   19.7015 F         1 <0>         0.0000
     23 F2          1.4088    2.9571   18.3694 F         1 <0>         0.0000
     24 F3          0.8698    0.9827   17.6345 F         1 <0>         0.0000
     25 Cl1        13.8840   -1.8490   21.2740 Cl        1 <0>         0.0000
     26 H1         12.2249    1.2198   24.6546 H         1 <0>         0.0000
     27 H2          9.8763    0.5350   24.3454 H         1 <0>         0.0000
     28 H3         14.0077    0.1988   23.2842 H         1 <0>         0.0000
     29 H4         11.0892   -2.3009   21.3624 H         1 <0>         0.0000
     30 H5          2.0755    0.5583   21.0673 H         1 <0>         0.0000
     31 H6          4.1195   -1.5521   22.1103 H         1 <0>         0.0000
     32 H7          5.3651   -0.3306   22.4677 H         1 <0>         0.0000
     33 H8          3.6754    0.0139   22.8330 H         1 <0>         0.0000
     34 H9          8.7774   -2.2383   22.1732 H         1 <0>         0.0000
     35 H10         8.2557   -1.0153   23.3257 H         1 <0>         0.0000
     36 H11         6.1925    0.9591   16.8759 H         1 <0>         0.0000
     37 H12         6.9394   -1.7028   21.0257 H         1 <0>         0.0000
@<TRIPOS>BOND
     1    1    2 ar
     2    1    3 ar
     3    2    7 ar
     4    3    9 ar
     5    4    7 ar
     6    4    9 ar
     7    5    8 ar
     8    5   10 ar
     9    6    8 ar
    10    6   11 ar
    11    6   12 1
    12    7   15 1
    13    8   14 1
    14    9   25 1
    15   10   16 1
    16   10   17 ar
    17   11   17 ar
    18   11   19 1
    19   12   18 2
    20   12   20 1
    21   13   15 1
    22   13   20 am
    23   13   21 2
    24   16   22 1
    25   16   23 1
    26   16   24 1
    27   18   19 1
    28    1   26 1
    29    2   27 1
    30    3   28 1
    31    4   29 1
    32    5   30 1
    33   14   31 1
    34   14   32 1
    35   14   33 1
    36   15   34 1
    37   15   35 1
    38   19   36 1
    39   20   37 1
