@<TRIPOS>MOLECULE
EDJ-MED-c8e7a002-12_1
   32    34     0     0     0
SMALL
NO_CHARGES

@<TRIPOS>ATOM
      1 C1          6.5346    0.5362   17.3127 C.ar      1 <0>         0.0000
      2 C2         11.9780    0.4600   23.9150 C.ar      1 <0>         0.0000
      3 C3          5.1917    0.9159   17.4311 C.ar      1 <0>         0.0000
      4 C4         10.6560    0.0720   23.7350 C.ar      1 <0>         0.0000
      5 C5          7.2201   -0.0247   18.3920 C.ar      1 <0>         0.0000
      6 C6         12.9840   -0.1200   23.1530 C.ar      1 <0>         0.0000
      7 C7         11.3360   -1.5050   22.0650 C.ar      1 <0>         0.0000
      8 C8          3.2554    0.9529   19.1870 C.2       1 <0>         0.0000
      9 C9          4.5452    0.7204   18.6629 C.ar      1 <0>         0.0000
     10 C10        10.3220   -0.8940   22.7910 C.ar      1 <0>         0.0000
     11 C11         5.2513    0.1598   19.7214 C.ar      1 <0>         0.0000
     12 C12         6.5902   -0.2258   19.6245 C.ar      1 <0>         0.0000
     13 C13        12.6400   -1.1000   22.2390 C.ar      1 <0>         0.0000
     14 C14         8.3880   -0.3240   21.3070 C.2       1 <0>         0.0000
     15 C15         8.8810   -1.1900   22.4510 C.3       1 <0>         0.0000
     16 N1          3.1391    0.5783   20.4630 N.2       1 <0>         0.0000
     17 N2          4.3603    0.1031   20.7590 N.pl3     1 <0>         0.0000
     18 N3          7.2820   -0.7860   20.6970 N.am      1 <0>         0.0000
     19 O1          8.9170    0.7530   21.0260 O.2       1 <0>         0.0000
     20 Cl1        13.8840   -1.8490   21.2740 Cl        1 <0>         0.0000
     21 H1          7.0495    0.6810   16.3664 H         1 <0>         0.0000
     22 H2         12.2249    1.2198   24.6546 H         1 <0>         0.0000
     23 H3          4.6692    1.3512   16.5850 H         1 <0>         0.0000
     24 H4          9.8763    0.5350   24.3454 H         1 <0>         0.0000
     25 H5          8.2627   -0.3070   18.2615 H         1 <0>         0.0000
     26 H6         14.0077    0.1988   23.2842 H         1 <0>         0.0000
     27 H7         11.0892   -2.3009   21.3624 H         1 <0>         0.0000
     28 H8          2.3958    1.3804   18.6902 H         1 <0>         0.0000
     29 H9          8.7774   -2.2383   22.1732 H         1 <0>         0.0000
     30 H10         8.2557   -1.0153   23.3257 H         1 <0>         0.0000
     31 H11         4.5217   -0.2482   21.6946 H         1 <0>         0.0000
     32 H12         6.8983   -1.6634   21.0688 H         1 <0>         0.0000
@<TRIPOS>BOND
     1    1    3 ar
     2    1    5 ar
     3    2    4 ar
     4    2    6 ar
     5    3    9 ar
     6    4   10 ar
     7    5   12 ar
     8    6   13 ar
     9    7   10 ar
    10    7   13 ar
    11    8    9 1
    12    8   16 2
    13    9   11 ar
    14   10   15 1
    15   11   12 ar
    16   11   17 1
    17   12   18 1
    18   13   20 1
    19   14   15 1
    20   14   18 am
    21   14   19 2
    22   16   17 1
    23    1   21 1
    24    2   22 1
    25    3   23 1
    26    4   24 1
    27    5   25 1
    28    6   26 1
    29    7   27 1
    30    8   28 1
    31   15   29 1
    32   15   30 1
    33   17   31 1
    34   18   32 1
