@<TRIPOS>MOLECULE
JAN-GHE-5a013bed-3_1
   34    36     0     0     0
SMALL
NO_CHARGES

@<TRIPOS>ATOM
      1 C1          3.8719    3.2496   17.6879 C.ar      1 <0>         0.0000
      2 C2          4.3669    2.8908   16.4351 C.ar      1 <0>         0.0000
      3 C3         11.9780    0.4600   23.9150 C.ar      1 <0>         0.0000
      4 C4          4.3337    2.6032   18.8335 C.ar      1 <0>         0.0000
      5 C5         10.6560    0.0720   23.7350 C.ar      1 <0>         0.0000
      6 C6          5.3270    1.8835   16.3225 C.ar      1 <0>         0.0000
      7 C7         12.9840   -0.1200   23.1530 C.ar      1 <0>         0.0000
      8 C8         11.3360   -1.5050   22.0650 C.ar      1 <0>         0.0000
      9 C9          5.2952    1.5945   18.7169 C.ar      1 <0>         0.0000
     10 C10        10.3220   -0.8940   22.7910 C.ar      1 <0>         0.0000
     11 C11         5.8028    1.2234   17.4608 C.ar      1 <0>         0.0000
     12 C12        12.6400   -1.1000   22.2390 C.ar      1 <0>         0.0000
     13 C13         7.1891   -0.3757   18.3767 C.2       1 <0>         0.0000
     14 C14         5.7974    0.8961   19.9252 C.2       1 <0>         0.0000
     15 C15         8.3880   -0.3240   21.3070 C.2       1 <0>         0.0000
     16 C16         8.8810   -1.1900   22.4510 C.3       1 <0>         0.0000
     17 N1          6.7716    0.2128   17.3045 N.2       1 <0>         0.0000
     18 N2          6.7498   -0.0793   19.6477 N.am      1 <0>         0.0000
     19 N3          7.2820   -0.7860   20.6970 N.am      1 <0>         0.0000
     20 O1          5.3783    1.1910   21.0391 O.2       1 <0>         0.0000
     21 O2          8.9170    0.7530   21.0260 O.2       1 <0>         0.0000
     22 Cl1        13.8840   -1.8490   21.2740 Cl        1 <0>         0.0000
     23 H1          3.1252    4.0340   17.7714 H         1 <0>         0.0000
     24 H2          4.0052    3.3962   15.5442 H         1 <0>         0.0000
     25 H3         12.2249    1.2198   24.6546 H         1 <0>         0.0000
     26 H4          3.9359    2.8964   19.8008 H         1 <0>         0.0000
     27 H5          9.8763    0.5350   24.3454 H         1 <0>         0.0000
     28 H6          5.7025    1.6162   15.3376 H         1 <0>         0.0000
     29 H7         14.0077    0.1988   23.2842 H         1 <0>         0.0000
     30 H8         11.0892   -2.3008   21.3624 H         1 <0>         0.0000
     31 H9          7.9460   -1.1744   18.3252 H         1 <0>         0.0000
     32 H10         8.7519   -2.2472   22.1528 H         1 <0>         0.0000
     33 H11         8.2467   -1.0628   23.3486 H         1 <0>         0.0000
     34 H12         6.8442   -1.6507   21.0103 H         1 <0>         0.0000
@<TRIPOS>BOND
     1    1    2 ar
     2    1    4 ar
     3    2    6 ar
     4    3    5 ar
     5    3    7 ar
     6    4    9 ar
     7    5   10 ar
     8    6   11 ar
     9    7   12 ar
    10    8   10 ar
    11    8   12 ar
    12    9   11 ar
    13    9   14 1
    14   10   16 1
    15   11   17 1
    16   12   22 1
    17   13   17 2
    18   13   18 1
    19   14   18 am
    20   14   20 2
    21   15   16 1
    22   15   19 am
    23   15   21 2
    24   18   19 1
    25    1   23 1
    26    2   24 1
    27    3   25 1
    28    4   26 1
    29    5   27 1
    30    6   28 1
    31    7   29 1
    32    8   30 1
    33   13   31 1
    34   16   32 1
    35   16   33 1
    36   19   34 1
