@<TRIPOS>MOLECULE
JAN-GHE-5a013bed-1_1
   31    32     0     0     0
SMALL
NO_CHARGES

@<TRIPOS>ATOM
      1 C1         11.9780    0.4600   23.9150 C.ar      1 <0>         0.0000
      2 C2         10.6560    0.0720   23.7350 C.ar      1 <0>         0.0000
      3 C3         12.9840   -0.1200   23.1530 C.ar      1 <0>         0.0000
      4 C4         11.3360   -1.5050   22.0650 C.ar      1 <0>         0.0000
      5 C5         10.3220   -0.8940   22.7910 C.ar      1 <0>         0.0000
      6 C6         12.6400   -1.1000   22.2390 C.ar      1 <0>         0.0000
      7 C7          5.2924    1.1481   18.4367 C.2       1 <0>         0.0000
      8 C8          5.6242    0.8008   19.7221 C.2       1 <0>         0.0000
      9 C9          8.3880   -0.3240   21.3070 C.2       1 <0>         0.0000
     10 C10         4.2863    2.1083   17.9626 C.3       1 <0>         0.0000
     11 C11         5.1116    1.2480   21.0291 C.3       1 <0>         0.0000
     12 C12         8.8810   -1.1900   22.4510 C.3       1 <0>         0.0000
     13 N1          6.0663    0.4443   17.5563 N.2       1 <0>         0.0000
     14 N2          6.8767   -0.3384   18.2604 N.2       1 <0>         0.0000
     15 N3          6.6099   -0.1233   19.5587 N.pl3     1 <0>         0.0000
     16 N4          7.2820   -0.7860   20.6970 N.am      1 <0>         0.0000
     17 O1          8.9170    0.7530   21.0260 O.2       1 <0>         0.0000
     18 Cl1        13.8840   -1.8490   21.2740 Cl        1 <0>         0.0000
     19 H1         12.2249    1.2198   24.6546 H         1 <0>         0.0000
     20 H2          9.8763    0.5350   24.3454 H         1 <0>         0.0000
     21 H3         14.0077    0.1988   23.2842 H         1 <0>         0.0000
     22 H4         11.0892   -2.3009   21.3624 H         1 <0>         0.0000
     23 H5          4.7144    3.1208   17.8525 H         1 <0>         0.0000
     24 H6          3.8609    1.8222   16.9827 H         1 <0>         0.0000
     25 H7          3.4241    2.1881   18.6508 H         1 <0>         0.0000
     26 H8          4.2677    0.6209   21.3635 H         1 <0>         0.0000
     27 H9          5.8863    1.2105   21.8153 H         1 <0>         0.0000
     28 H10         4.7586    2.2943   21.0021 H         1 <0>         0.0000
     29 H11         8.2454   -1.0138   23.3201 H         1 <0>         0.0000
     30 H12         8.7729   -2.2397   22.1737 H         1 <0>         0.0000
     31 H13         6.8794   -1.6525   21.0431 H         1 <0>         0.0000
@<TRIPOS>BOND
     1    1    2 ar
     2    1    3 ar
     3    2    5 ar
     4    3    6 ar
     5    4    5 ar
     6    4    6 ar
     7    5   12 1
     8    6   18 1
     9    7    8 2
    10    7   10 1
    11    7   13 1
    12    8   11 1
    13    8   15 1
    14    9   12 1
    15    9   16 am
    16    9   17 2
    17   13   14 2
    18   14   15 1
    19   15   16 1
    20    1   19 1
    21    2   20 1
    22    3   21 1
    23    4   22 1
    24   10   23 1
    25   10   24 1
    26   10   25 1
    27   11   26 1
    28   11   27 1
    29   11   28 1
    30   12   29 1
    31   12   30 1
    32   16   31 1
