@<TRIPOS>MOLECULE
JAN-GHE-5a013bed-11_1
   23    24     0     0     0
SMALL
NO_CHARGES

@<TRIPOS>ATOM
      1 C1         11.9780    0.4600   23.9150 C.ar      1 <0>         0.0000
      2 C2         10.6560    0.0720   23.7350 C.ar      1 <0>         0.0000
      3 C3         12.9840   -0.1200   23.1530 C.ar      1 <0>         0.0000
      4 C4         11.3360   -1.5050   22.0650 C.ar      1 <0>         0.0000
      5 C5         10.3220   -0.8940   22.7910 C.ar      1 <0>         0.0000
      6 C6         12.6400   -1.1000   22.2390 C.ar      1 <0>         0.0000
      7 C7          6.5418   -0.1622   19.6645 C.2       1 <0>         0.0000
      8 C8          8.3880   -0.3240   21.3070 C.2       1 <0>         0.0000
      9 C9          8.8810   -1.1900   22.4510 C.3       1 <0>         0.0000
     10 N1          5.9177    1.2496   18.2016 N.2       1 <0>         0.0000
     11 N2          6.8732    1.0330   19.1401 N.2       1 <0>         0.0000
     12 N3          5.4404   -0.7084   19.1151 N.2       1 <0>         0.0000
     13 N4          5.0569    0.2034   18.1866 N.2       1 <0>         0.0000
     14 N5          7.2820   -0.7860   20.6970 N.am      1 <0>         0.0000
     15 O1          8.9170    0.7530   21.0260 O.2       1 <0>         0.0000
     16 Cl1        13.8840   -1.8490   21.2740 Cl        1 <0>         0.0000
     17 H1         12.2249    1.2198   24.6546 H         1 <0>         0.0000
     18 H2          9.8763    0.5350   24.3454 H         1 <0>         0.0000
     19 H3         14.0077    0.1988   23.2842 H         1 <0>         0.0000
     20 H4         11.0892   -2.3009   21.3624 H         1 <0>         0.0000
     21 H5          8.7709   -2.2387   22.1706 H         1 <0>         0.0000
     22 H6          8.2491   -1.0157   23.3232 H         1 <0>         0.0000
     23 H7          6.9372   -1.6894   21.0149 H         1 <0>         0.0000
@<TRIPOS>BOND
     1    1    2 ar
     2    1    3 ar
     3    2    5 ar
     4    3    6 ar
     5    4    5 ar
     6    4    6 ar
     7    5    9 1
     8    6   16 1
     9    7   11 2
    10    7   12 1
    11    7   14 1
    12    8    9 1
    13    8   14 am
    14    8   15 2
    15   10   11 1
    16   10   13 1
    17   12   13 2
    18    1   17 1
    19    2   18 1
    20    3   19 1
    21    4   20 1
    22    9   21 1
    23    9   22 1
    24   14   23 1
