@<TRIPOS>MOLECULE
JAN-GHE-83b26c96-22_1
   37    38     0     0     0
SMALL
NO_CHARGES

@<TRIPOS>ATOM
      1 C1         11.9780    0.4600   23.9150 C.ar      1 <0>         0.0000
      2 C2         10.6560    0.0720   23.7350 C.ar      1 <0>         0.0000
      3 C3         12.9840   -0.1200   23.1530 C.ar      1 <0>         0.0000
      4 C4          4.9142    1.2580   18.6936 C.ar      1 <0>         0.0000
      5 C5         11.3360   -1.5050   22.0650 C.ar      1 <0>         0.0000
      6 C6          5.3173    0.8445   17.4341 C.ar      1 <0>         0.0000
      7 C7          6.9161   -0.5553   18.3072 C.ar      1 <0>         0.0000
      8 C8         10.3220   -0.8940   22.7910 C.ar      1 <0>         0.0000
      9 C9          5.5669    0.7174   19.7959 C.ar      1 <0>         0.0000
     10 C10         6.5881   -0.2073   19.6076 C.ar      1 <0>         0.0000
     11 C11        12.6400   -1.1000   22.2390 C.ar      1 <0>         0.0000
     12 C12         8.3880   -0.3240   21.3070 C.2       1 <0>         0.0000
     13 C13         5.1531    1.1459   21.1655 C.3       1 <0>         0.0000
     14 C14         8.7851   -2.6925   22.0505 C.3       1 <0>         0.0000
     15 C15         7.8868   -1.0071   23.6371 C.3       1 <0>         0.0000
     16 C16         8.8810   -1.1900   22.4510 C.3       1 <0>         0.0000
     17 N1          6.3049   -0.0515   17.2117 N.ar      1 <0>         0.0000
     18 N2          7.2820   -0.7860   20.6970 N.am      1 <0>         0.0000
     19 O1          8.9170    0.7530   21.0260 O.2       1 <0>         0.0000
     20 Cl1        13.8840   -1.8490   21.2740 Cl        1 <0>         0.0000
     21 H1         12.2249    1.2198   24.6546 H         1 <0>         0.0000
     22 H2          9.8763    0.5350   24.3454 H         1 <0>         0.0000
     23 H3         14.0077    0.1988   23.2842 H         1 <0>         0.0000
     24 H4          4.1139    1.9815   18.8062 H         1 <0>         0.0000
     25 H5         11.0892   -2.3009   21.3624 H         1 <0>         0.0000
     26 H6          4.8402    1.2364   16.5418 H         1 <0>         0.0000
     27 H7          7.7041   -1.2721   18.0957 H         1 <0>         0.0000
     28 H8          4.3610    0.4903   21.5454 H         1 <0>         0.0000
     29 H9          5.9988    1.1132   21.8634 H         1 <0>         0.0000
     30 H10         4.7813    2.1781   21.1623 H         1 <0>         0.0000
     31 H11         7.7562   -2.9760   21.7988 H         1 <0>         0.0000
     32 H12         9.1239   -3.3622   22.8498 H         1 <0>         0.0000
     33 H13         9.4121   -2.8991   21.1748 H         1 <0>         0.0000
     34 H14         6.8529   -1.2397   23.3585 H         1 <0>         0.0000
     35 H15         7.9045    0.0237   24.0100 H         1 <0>         0.0000
     36 H16         8.1455   -1.6627   24.4776 H         1 <0>         0.0000
     37 H17         6.8755   -1.6471   21.0548 H         1 <0>         0.0000
@<TRIPOS>BOND
     1    1    2 ar
     2    1    3 ar
     3    2    8 ar
     4    3   11 ar
     5    4    6 ar
     6    4    9 ar
     7    5    8 ar
     8    5   11 ar
     9    6   17 ar
    10    7   10 ar
    11    7   17 ar
    12    8   16 1
    13    9   10 ar
    14    9   13 1
    15   10   18 1
    16   11   20 1
    17   12   16 1
    18   12   18 am
    19   12   19 2
    20   14   16 1
    21   15   16 1
    22    1   21 1
    23    2   22 1
    24    3   23 1
    25    4   24 1
    26    5   25 1
    27    6   26 1
    28    7   27 1
    29   13   28 1
    30   13   29 1
    31   13   30 1
    32   14   31 1
    33   14   32 1
    34   14   33 1
    35   15   34 1
    36   15   35 1
    37   15   36 1
    38   18   37 1
