@<TRIPOS>MOLECULE
JAN-GHE-5a013bed-2_1
   32    34     0     0     0
SMALL
NO_CHARGES

@<TRIPOS>ATOM
      1 C1          3.4999    2.3696   19.1941 C.ar      1 <0>         0.0000
      2 C2          3.8756    2.1167   20.5154 C.ar      1 <0>         0.0000
      3 C3         11.9780    0.4600   23.9150 C.ar      1 <0>         0.0000
      4 C4         10.6560    0.0720   23.7350 C.ar      1 <0>         0.0000
      5 C5          4.1598    1.7502   18.1253 C.ar      1 <0>         0.0000
      6 C6          4.9215    1.2382   20.8172 C.ar      1 <0>         0.0000
      7 C7         12.9840   -0.1200   23.1530 C.ar      1 <0>         0.0000
      8 C8         11.3360   -1.5050   22.0650 C.ar      1 <0>         0.0000
      9 C9          6.8334   -0.5242   18.3421 C.2       1 <0>         0.0000
     10 C10        10.3220   -0.8940   22.7910 C.ar      1 <0>         0.0000
     11 C11         5.2130    0.8647   18.4101 C.ar      1 <0>         0.0000
     12 C12         5.5643    0.6328   19.7369 C.ar      1 <0>         0.0000
     13 C13        12.6400   -1.1000   22.2390 C.ar      1 <0>         0.0000
     14 C14         8.3880   -0.3240   21.3070 C.2       1 <0>         0.0000
     15 C15         8.8810   -1.1900   22.4510 C.3       1 <0>         0.0000
     16 N1          6.0120    0.1373   17.5581 N.2       1 <0>         0.0000
     17 N2          6.6033   -0.2593   19.6635 N.pl3     1 <0>         0.0000
     18 N3          7.2820   -0.7860   20.6970 N.am      1 <0>         0.0000
     19 O1          8.9170    0.7530   21.0260 O.2       1 <0>         0.0000
     20 Cl1        13.8840   -1.8490   21.2740 Cl        1 <0>         0.0000
     21 H1          2.6830    3.0570   18.9912 H         1 <0>         0.0000
     22 H2          3.3440    2.6104   21.3254 H         1 <0>         0.0000
     23 H3         12.2249    1.2198   24.6546 H         1 <0>         0.0000
     24 H4          9.8763    0.5350   24.3454 H         1 <0>         0.0000
     25 H5          3.8597    1.9526   17.1021 H         1 <0>         0.0000
     26 H6          5.2121    1.0425   21.8433 H         1 <0>         0.0000
     27 H7         14.0077    0.1988   23.2842 H         1 <0>         0.0000
     28 H8         11.0892   -2.3008   21.3624 H         1 <0>         0.0000
     29 H9          7.6078   -1.2035   18.0119 H         1 <0>         0.0000
     30 H10         8.2520   -1.0134   23.3227 H         1 <0>         0.0000
     31 H11         8.7794   -2.2394   22.1763 H         1 <0>         0.0000
     32 H12         6.8842   -1.7078   21.0924 H         1 <0>         0.0000
@<TRIPOS>BOND
     1    1    2 ar
     2    1    5 ar
     3    2    6 ar
     4    3    4 ar
     5    3    7 ar
     6    4   10 ar
     7    5   11 ar
     8    6   12 ar
     9    7   13 ar
    10    8   10 ar
    11    8   13 ar
    12    9   16 2
    13    9   17 1
    14   10   15 1
    15   11   12 ar
    16   11   16 1
    17   12   17 1
    18   13   20 1
    19   14   15 1
    20   14   18 am
    21   14   19 2
    22   17   18 1
    23    1   21 1
    24    2   22 1
    25    3   23 1
    26    4   24 1
    27    5   25 1
    28    6   26 1
    29    7   27 1
    30    8   28 1
    31    9   29 1
    32   15   30 1
    33   15   31 1
    34   18   32 1
