@<TRIPOS>MOLECULE
JIN-POS-6dc588a4-10_1
   32    34     0     0     0
SMALL
NO_CHARGES

@<TRIPOS>ATOM
      1 C1         11.9780    0.4600   23.9150 C.ar      1 <0>         0.0000
      2 C2         10.6560    0.0720   23.7350 C.ar      1 <0>         0.0000
      3 C3         12.9840   -0.1200   23.1530 C.ar      1 <0>         0.0000
      4 C4         11.3360   -1.5050   22.0650 C.ar      1 <0>         0.0000
      5 C5          2.6827    0.9234   19.8469 C.ar      1 <0>         0.0000
      6 C6          3.3065    0.3758   20.9375 C.ar      1 <0>         0.0000
      7 C7          5.3648    0.8576   17.4641 C.ar      1 <0>         0.0000
      8 C8          7.2429   -0.0358   18.4150 C.ar      1 <0>         0.0000
      9 C9         10.3220   -0.8940   22.7910 C.ar      1 <0>         0.0000
     10 C10         4.6175    0.7162   18.6223 C.ar      1 <0>         0.0000
     11 C11         5.2589    0.1557   19.7365 C.ar      1 <0>         0.0000
     12 C12         6.5902   -0.2227   19.6221 C.ar      1 <0>         0.0000
     13 C13        12.6400   -1.1000   22.2390 C.ar      1 <0>         0.0000
     14 C14         8.3880   -0.3240   21.3070 C.2       1 <0>         0.0000
     15 C15         8.8810   -1.1900   22.4510 C.3       1 <0>         0.0000
     16 N1          6.6601    0.4983   17.3263 N.ar      1 <0>         0.0000
     17 N2          3.3287    1.0994   18.6803 N.ar      1 <0>         0.0000
     18 N3          4.5947   -0.0120   20.8939 N.ar      1 <0>         0.0000
     19 N4          7.2820   -0.7860   20.6970 N.am      1 <0>         0.0000
     20 O1          8.9170    0.7530   21.0260 O.2       1 <0>         0.0000
     21 Cl1        13.8840   -1.8490   21.2740 Cl        1 <0>         0.0000
     22 H1         12.2249    1.2198   24.6546 H         1 <0>         0.0000
     23 H2          9.8763    0.5350   24.3454 H         1 <0>         0.0000
     24 H3         14.0077    0.1988   23.2842 H         1 <0>         0.0000
     25 H4         11.0892   -2.3008   21.3624 H         1 <0>         0.0000
     26 H5          1.6470    1.2378   19.8727 H         1 <0>         0.0000
     27 H6          2.7942    0.2297   21.8801 H         1 <0>         0.0000
     28 H7          4.9222    1.2851   16.5684 H         1 <0>         0.0000
     29 H8          8.2831   -0.3178   18.2834 H         1 <0>         0.0000
     30 H9          8.7774   -2.2383   22.1732 H         1 <0>         0.0000
     31 H10         8.2557   -1.0153   23.3257 H         1 <0>         0.0000
     32 H11         6.8982   -1.6622   21.0677 H         1 <0>         0.0000
@<TRIPOS>BOND
     1    1    2 ar
     2    1    3 ar
     3    2    9 ar
     4    3   13 ar
     5    4    9 ar
     6    4   13 ar
     7    5    6 ar
     8    5   17 ar
     9    6   18 ar
    10    7   10 ar
    11    7   16 ar
    12    8   12 ar
    13    8   16 ar
    14    9   15 1
    15   10   11 ar
    16   10   17 ar
    17   11   12 ar
    18   11   18 ar
    19   12   19 1
    20   13   21 1
    21   14   15 1
    22   14   19 am
    23   14   20 2
    24    1   22 1
    25    2   23 1
    26    3   24 1
    27    4   25 1
    28    5   26 1
    29    6   27 1
    30    7   28 1
    31    8   29 1
    32   15   30 1
    33   15   31 1
    34   19   32 1
