@<TRIPOS>MOLECULE
JIN-POS-6dc588a4-9_1
   32    34     0     0     0
SMALL
NO_CHARGES

@<TRIPOS>ATOM
      1 C1         11.9780    0.4600   23.9150 C.ar      1 <0>         0.0000
      2 C2         10.6560    0.0720   23.7350 C.ar      1 <0>         0.0000
      3 C3         12.9840   -0.1200   23.1530 C.ar      1 <0>         0.0000
      4 C4         11.3360   -1.5050   22.0650 C.ar      1 <0>         0.0000
      5 C5          7.0488    0.0211   18.3416 C.2       1 <0>         0.0000
      6 C6         10.3220   -0.8940   22.7910 C.ar      1 <0>         0.0000
      7 C7          6.5902   -0.2453   19.6404 C.2       1 <0>         0.0000
      8 C8         12.6400   -1.1000   22.2390 C.ar      1 <0>         0.0000
      9 C9          5.2779    0.1587   19.6285 C.2       1 <0>         0.0000
     10 C10         4.2264    0.1797   20.5874 C.2       1 <0>         0.0000
     11 C11         3.0179    0.6580   20.2376 C.2       1 <0>         0.0000
     12 C12         2.7598    1.1555   18.8982 C.2       1 <0>         0.0000
     13 C13         3.7488    1.1375   17.9909 C.2       1 <0>         0.0000
     14 C14         8.3880   -0.3240   21.3070 C.2       1 <0>         0.0000
     15 C15         8.8810   -1.1900   22.4510 C.3       1 <0>         0.0000
     16 N1          6.1136    0.5529   17.5533 N.2       1 <0>         0.0000
     17 N2          5.0095    0.6426   18.3435 N.pl3     1 <0>         0.0000
     18 N3          7.2820   -0.7860   20.6970 N.am      1 <0>         0.0000
     19 O1          8.9170    0.7530   21.0260 O.2       1 <0>         0.0000
     20 Cl1        13.8840   -1.8490   21.2740 Cl        1 <0>         0.0000
     21 H1         12.2249    1.2198   24.6546 H         1 <0>         0.0000
     22 H2          9.8763    0.5350   24.3454 H         1 <0>         0.0000
     23 H3         14.0077    0.1988   23.2842 H         1 <0>         0.0000
     24 H4         11.0892   -2.3009   21.3624 H         1 <0>         0.0000
     25 H5          8.0331   -0.1497   17.9287 H         1 <0>         0.0000
     26 H6          4.4043   -0.1886   21.5922 H         1 <0>         0.0000
     27 H7          2.2025    0.6833   20.9521 H         1 <0>         0.0000
     28 H8          1.7724    1.5307   18.6591 H         1 <0>         0.0000
     29 H9          3.6202    1.4936   16.9762 H         1 <0>         0.0000
     30 H10         8.7774   -2.2383   22.1732 H         1 <0>         0.0000
     31 H11         8.2557   -1.0153   23.3257 H         1 <0>         0.0000
     32 H12         6.8991   -1.6713   21.0760 H         1 <0>         0.0000
@<TRIPOS>BOND
     1    1    2 ar
     2    1    3 ar
     3    2    6 ar
     4    3    8 ar
     5    4    6 ar
     6    4    8 ar
     7    5    7 1
     8    5   16 2
     9    6   15 1
    10    7    9 2
    11    7   18 1
    12    8   20 1
    13    9   10 1
    14    9   17 1
    15   10   11 2
    16   11   12 1
    17   12   13 2
    18   13   17 1
    19   14   15 1
    20   14   18 am
    21   14   19 2
    22   16   17 1
    23    1   21 1
    24    2   22 1
    25    3   23 1
    26    4   24 1
    27    5   25 1
    28   10   26 1
    29   11   27 1
    30   12   28 1
    31   13   29 1
    32   15   30 1
    33   15   31 1
    34   18   32 1
