@<TRIPOS>MOLECULE
JIN-POS-6dc588a4-14_1
   32    34     0     0     0
SMALL
NO_CHARGES

@<TRIPOS>ATOM
      1 C1         11.9780    0.4600   23.9150 C.ar      1 <0>         0.0000
      2 C2         10.6560    0.0720   23.7350 C.ar      1 <0>         0.0000
      3 C3         12.9840   -0.1200   23.1530 C.ar      1 <0>         0.0000
      4 C4          3.2534    0.9923   19.0324 C.2       1 <0>         0.0000
      5 C5         11.3360   -1.5050   22.0650 C.ar      1 <0>         0.0000
      6 C6          5.2803    0.8865   17.4064 C.ar      1 <0>         0.0000
      7 C7          7.1884   -0.0187   18.3941 C.ar      1 <0>         0.0000
      8 C8          3.1478    0.6037   20.3483 C.2       1 <0>         0.0000
      9 C9          4.5822    0.7184   18.6063 C.ar      1 <0>         0.0000
     10 C10        10.3220   -0.8940   22.7910 C.ar      1 <0>         0.0000
     11 C11         5.2560    0.1619   19.6946 C.ar      1 <0>         0.0000
     12 C12         6.5901   -0.2286   19.6268 C.ar      1 <0>         0.0000
     13 C13        12.6400   -1.1000   22.2390 C.ar      1 <0>         0.0000
     14 C14         8.3880   -0.3240   21.3070 C.2       1 <0>         0.0000
     15 C15         8.8810   -1.1900   22.4510 C.3       1 <0>         0.0000
     16 N1          6.5799    0.5160   17.3104 N.ar      1 <0>         0.0000
     17 N2          4.3614    0.1039   20.7389 N.pl3     1 <0>         0.0000
     18 N3          7.2820   -0.7860   20.6970 N.am      1 <0>         0.0000
     19 O1          8.9170    0.7530   21.0260 O.2       1 <0>         0.0000
     20 Cl1        13.8840   -1.8490   21.2740 Cl        1 <0>         0.0000
     21 H1         12.2249    1.2198   24.6546 H         1 <0>         0.0000
     22 H2          9.8763    0.5350   24.3454 H         1 <0>         0.0000
     23 H3         14.0077    0.1988   23.2842 H         1 <0>         0.0000
     24 H4          2.4585    1.4264   18.4414 H         1 <0>         0.0000
     25 H5         11.0892   -2.3009   21.3624 H         1 <0>         0.0000
     26 H6          4.8340    1.3095   16.5143 H         1 <0>         0.0000
     27 H7          8.2291   -0.2872   18.2312 H         1 <0>         0.0000
     28 H8          2.3184    0.6387   21.0405 H         1 <0>         0.0000
     29 H9          8.7775   -2.2383   22.1732 H         1 <0>         0.0000
     30 H10         8.2557   -1.0153   23.3257 H         1 <0>         0.0000
     31 H11         4.5690   -0.2556   21.6604 H         1 <0>         0.0000
     32 H12         6.8984   -1.6645   21.0698 H         1 <0>         0.0000
@<TRIPOS>BOND
     1    1    2 ar
     2    1    3 ar
     3    2   10 ar
     4    3   13 ar
     5    4    8 2
     6    4    9 1
     7    5   10 ar
     8    5   13 ar
     9    6    9 ar
    10    6   16 ar
    11    7   12 ar
    12    7   16 ar
    13    8   17 1
    14    9   11 ar
    15   10   15 1
    16   11   12 ar
    17   11   17 1
    18   12   18 1
    19   13   20 1
    20   14   15 1
    21   14   18 am
    22   14   19 2
    23    1   21 1
    24    2   22 1
    25    3   23 1
    26    4   24 1
    27    5   25 1
    28    6   26 1
    29    7   27 1
    30    8   28 1
    31   15   29 1
    32   15   30 1
    33   17   31 1
    34   18   32 1
