@<TRIPOS>MOLECULE
JIN-POS-6dc588a4-2_1
   30    32     0     0     0
SMALL
NO_CHARGES

@<TRIPOS>ATOM
      1 C1         11.9780    0.4600   23.9150 C.ar      1 <0>         0.0000
      2 C2          2.9104    0.5807   20.3656 C.ar      1 <0>         0.0000
      3 C3          4.1596    0.0858   20.7381 C.ar      1 <0>         0.0000
      4 C4         10.6560    0.0720   23.7350 C.ar      1 <0>         0.0000
      5 C5         12.9840   -0.1200   23.1530 C.ar      1 <0>         0.0000
      6 C6         11.3360   -1.5050   22.0650 C.ar      1 <0>         0.0000
      7 C7          2.7499    1.1058   19.0884 C.ar      1 <0>         0.0000
      8 C8          5.1846    0.1514   19.7872 C.ar      1 <0>         0.0000
      9 C9         10.3220   -0.8940   22.7910 C.ar      1 <0>         0.0000
     10 C10        12.6400   -1.1000   22.2390 C.ar      1 <0>         0.0000
     11 C11         6.5430   -0.1980   19.6894 C.2       1 <0>         0.0000
     12 C12         4.8925    0.6996   18.5477 C.ar      1 <0>         0.0000
     13 C13         8.3880   -0.3240   21.3070 C.2       1 <0>         0.0000
     14 C14         8.8810   -1.1900   22.4510 C.3       1 <0>         0.0000
     15 N1          3.7090    1.1907   18.1361 N.ar      1 <0>         0.0000
     16 N2          7.0590    0.1034   18.4944 N.2       1 <0>         0.0000
     17 N3          7.2820   -0.7860   20.6970 N.am      1 <0>         0.0000
     18 O1          8.9170    0.7530   21.0260 O.2       1 <0>         0.0000
     19 O2          6.0148    0.6703   17.7752 O.3       1 <0>         0.0000
     20 Cl1        13.8840   -1.8490   21.2740 Cl        1 <0>         0.0000
     21 H1         12.2249    1.2198   24.6546 H         1 <0>         0.0000
     22 H2          2.0785    0.5560   21.0614 H         1 <0>         0.0000
     23 H3          4.3201   -0.3309   21.7267 H         1 <0>         0.0000
     24 H4          9.8763    0.5350   24.3454 H         1 <0>         0.0000
     25 H5         14.0077    0.1988   23.2842 H         1 <0>         0.0000
     26 H6         11.0892   -2.3009   21.3624 H         1 <0>         0.0000
     27 H7          1.7818    1.4951   18.7842 H         1 <0>         0.0000
     28 H8          8.7774   -2.2383   22.1732 H         1 <0>         0.0000
     29 H9          8.2557   -1.0153   23.3257 H         1 <0>         0.0000
     30 H10         6.9395   -1.7033   21.0261 H         1 <0>         0.0000
@<TRIPOS>BOND
     1    1    4 ar
     2    1    5 ar
     3    2    3 ar
     4    2    7 ar
     5    3    8 ar
     6    4    9 ar
     7    5   10 ar
     8    6    9 ar
     9    6   10 ar
    10    7   15 ar
    11    8   11 1
    12    8   12 ar
    13    9   14 1
    14   10   20 1
    15   11   16 2
    16   11   17 1
    17   12   15 ar
    18   12   19 1
    19   13   14 1
    20   13   17 am
    21   13   18 2
    22   16   19 1
    23    1   21 1
    24    2   22 1
    25    3   23 1
    26    4   24 1
    27    5   25 1
    28    6   26 1
    29    7   27 1
    30   14   28 1
    31   14   29 1
    32   17   30 1
