@<TRIPOS>MOLECULE
JIN-POS-6dc588a4-24_1
   35    37     0     0     0
SMALL
NO_CHARGES

@<TRIPOS>ATOM
      1 C1          4.1908    1.4784   16.6810 C.1       1 <0>         0.0000
      2 C2          8.3189    0.4614   15.8451 C.ar      1 <0>         0.0000
      3 C3          9.0850   -0.1064   16.8604 C.ar      1 <0>         0.0000
      4 C4         11.9780    0.4600   23.9150 C.ar      1 <0>         0.0000
      5 C5          6.9868    0.8003   16.0817 C.ar      1 <0>         0.0000
      6 C6          8.5226   -0.3379   18.1169 C.ar      1 <0>         0.0000
      7 C7         10.6560    0.0720   23.7350 C.ar      1 <0>         0.0000
      8 C8         12.9840   -0.1200   23.1530 C.ar      1 <0>         0.0000
      9 C9         11.3360   -1.5050   22.0650 C.ar      1 <0>         0.0000
     10 C10         5.2620    0.1360   19.7951 C.ar      1 <0>         0.0000
     11 C11         5.0830    0.8917   17.6337 C.ar      1 <0>         0.0000
     12 C12         6.4106    0.5720   17.3422 C.ar      1 <0>         0.0000
     13 C13         7.1829   -0.0027   18.3728 C.ar      1 <0>         0.0000
     14 C14        10.3220   -0.8940   22.7910 C.ar      1 <0>         0.0000
     15 C15         6.5902   -0.2221   19.6216 C.ar      1 <0>         0.0000
     16 C16        12.6400   -1.1000   22.2390 C.ar      1 <0>         0.0000
     17 C17         8.3880   -0.3240   21.3070 C.2       1 <0>         0.0000
     18 C18         8.8810   -1.1900   22.4510 C.3       1 <0>         0.0000
     19 N1          3.4674    1.9542   15.9083 N.1       1 <0>         0.0000
     20 N2          4.4924    0.6876   18.8328 N.ar      1 <0>         0.0000
     21 N3          7.2820   -0.7860   20.6970 N.am      1 <0>         0.0000
     22 O1          8.9170    0.7530   21.0260 O.2       1 <0>         0.0000
     23 Cl1        13.8840   -1.8490   21.2740 Cl        1 <0>         0.0000
     24 H1          8.7592    0.6402   14.8684 H         1 <0>         0.0000
     25 H2         10.1223   -0.3697   16.6743 H         1 <0>         0.0000
     26 H3         12.2249    1.2198   24.6546 H         1 <0>         0.0000
     27 H4          6.4193    1.2414   15.2660 H         1 <0>         0.0000
     28 H5          9.1525   -0.7827   18.8839 H         1 <0>         0.0000
     29 H6          9.8763    0.5350   24.3454 H         1 <0>         0.0000
     30 H7         14.0077    0.1988   23.2842 H         1 <0>         0.0000
     31 H8         11.0892   -2.3009   21.3624 H         1 <0>         0.0000
     32 H9          4.7567   -0.0138   20.7449 H         1 <0>         0.0000
     33 H10         8.7774   -2.2383   22.1732 H         1 <0>         0.0000
     34 H11         8.2557   -1.0153   23.3257 H         1 <0>         0.0000
     35 H12         6.8981   -1.6619   21.0675 H         1 <0>         0.0000
@<TRIPOS>BOND
     1    1   11 1
     2    1   19 3
     3    2    3 ar
     4    2    5 ar
     5    3    6 ar
     6    4    7 ar
     7    4    8 ar
     8    5   12 ar
     9    6   13 ar
    10    7   14 ar
    11    8   16 ar
    12    9   14 ar
    13    9   16 ar
    14   10   15 ar
    15   10   20 ar
    16   11   12 ar
    17   11   20 ar
    18   12   13 ar
    19   13   15 ar
    20   14   18 1
    21   15   21 1
    22   16   23 1
    23   17   18 1
    24   17   21 am
    25   17   22 2
    26    2   24 1
    27    3   25 1
    28    4   26 1
    29    5   27 1
    30    6   28 1
    31    7   29 1
    32    8   30 1
    33    9   31 1
    34   10   32 1
    35   18   33 1
    36   18   34 1
    37   21   35 1
