@<TRIPOS>MOLECULE
JIN-POS-6dc588a4-22_1
   31    33     0     0     0
SMALL
NO_CHARGES

@<TRIPOS>ATOM
      1 C1         11.9780    0.4600   23.9150 C.ar      1 <0>         0.0000
      2 C2         10.6560    0.0720   23.7350 C.ar      1 <0>         0.0000
      3 C3         12.9840   -0.1200   23.1530 C.ar      1 <0>         0.0000
      4 C4          4.3223    0.0934   20.8219 C.2       1 <0>         0.0000
      5 C5         11.3360   -1.5050   22.0650 C.ar      1 <0>         0.0000
      6 C6          7.2207   -0.0294   18.4064 C.ar      1 <0>         0.0000
      7 C7          5.3385    0.8804   17.3972 C.ar      1 <0>         0.0000
      8 C8          3.0752    0.5809   20.5101 C.2       1 <0>         0.0000
      9 C9          5.2402    0.1628   19.7208 C.ar      1 <0>         0.0000
     10 C10        10.3220   -0.8940   22.7910 C.ar      1 <0>         0.0000
     11 C11         6.5902   -0.2256   19.6244 C.ar      1 <0>         0.0000
     12 C12         4.6319    0.7157   18.5901 C.ar      1 <0>         0.0000
     13 C13        12.6400   -1.1000   22.2390 C.ar      1 <0>         0.0000
     14 C14         8.3880   -0.3240   21.3070 C.2       1 <0>         0.0000
     15 C15         8.8810   -1.1900   22.4510 C.3       1 <0>         0.0000
     16 N1          6.6335    0.5036   17.3174 N.ar      1 <0>         0.0000
     17 N2          7.2820   -0.7860   20.6970 N.am      1 <0>         0.0000
     18 O1          8.9170    0.7530   21.0260 O.2       1 <0>         0.0000
     19 S1          2.9875    1.1274   18.8977 S.3       1 <0>         0.0000
     20 Cl1        13.8840   -1.8490   21.2740 Cl        1 <0>         0.0000
     21 H1         12.2249    1.2198   24.6546 H         1 <0>         0.0000
     22 H2          9.8763    0.5350   24.3454 H         1 <0>         0.0000
     23 H3         14.0077    0.1988   23.2842 H         1 <0>         0.0000
     24 H4          4.5686   -0.2990   21.8009 H         1 <0>         0.0000
     25 H5         11.0892   -2.3009   21.3624 H         1 <0>         0.0000
     26 H6          8.2616   -0.3072   18.2646 H         1 <0>         0.0000
     27 H7          4.8990    1.3047   16.5030 H         1 <0>         0.0000
     28 H8          2.2115    0.6406   21.1570 H         1 <0>         0.0000
     29 H9          8.7774   -2.2383   22.1732 H         1 <0>         0.0000
     30 H10         8.2557   -1.0153   23.3257 H         1 <0>         0.0000
     31 H11         6.8983   -1.6633   21.0687 H         1 <0>         0.0000
@<TRIPOS>BOND
     1    1    2 ar
     2    1    3 ar
     3    2   10 ar
     4    3   13 ar
     5    4    8 2
     6    4    9 1
     7    5   10 ar
     8    5   13 ar
     9    6   11 ar
    10    6   16 ar
    11    7   12 ar
    12    7   16 ar
    13    8   19 1
    14    9   11 ar
    15    9   12 ar
    16   10   15 1
    17   11   17 1
    18   12   19 1
    19   13   20 1
    20   14   15 1
    21   14   17 am
    22   14   18 2
    23    1   21 1
    24    2   22 1
    25    3   23 1
    26    4   24 1
    27    5   25 1
    28    6   26 1
    29    7   27 1
    30    8   28 1
    31   15   29 1
    32   15   30 1
    33   17   31 1
