@<TRIPOS>MOLECULE
JIN-POS-6dc588a4-5_1
   33    35     0     0     0
SMALL
NO_CHARGES

@<TRIPOS>ATOM
      1 C1          2.9377    0.6958   20.1993 C.ar      1 <0>         0.0000
      2 C2          2.7093    1.1708   18.9093 C.ar      1 <0>         0.0000
      3 C3         11.9780    0.4600   23.9150 C.ar      1 <0>         0.0000
      4 C4          4.1927    0.1972   20.5672 C.ar      1 <0>         0.0000
      5 C5         10.6560    0.0720   23.7350 C.ar      1 <0>         0.0000
      6 C6          3.7241    1.1632   17.9482 C.ar      1 <0>         0.0000
      7 C7         12.9840   -0.1200   23.1530 C.ar      1 <0>         0.0000
      8 C8         11.3360   -1.5050   22.0650 C.ar      1 <0>         0.0000
      9 C9          7.1210   -0.0126   18.3898 C.2       1 <0>         0.0000
     10 C10         5.2313    0.1795   19.6151 C.ar      1 <0>         0.0000
     11 C11        10.3220   -0.8940   22.7910 C.ar      1 <0>         0.0000
     12 C12         4.9736    0.6619   18.3302 C.ar      1 <0>         0.0000
     13 C13         6.5901   -0.2424   19.6380 C.2       1 <0>         0.0000
     14 C14        12.6400   -1.1000   22.2390 C.ar      1 <0>         0.0000
     15 C15         8.3880   -0.3240   21.3070 C.2       1 <0>         0.0000
     16 C16         8.8810   -1.1900   22.4510 C.3       1 <0>         0.0000
     17 N1          6.1385    0.5332   17.6080 N.pl3     1 <0>         0.0000
     18 N2          7.2820   -0.7860   20.6970 N.am      1 <0>         0.0000
     19 O1          8.9170    0.7530   21.0260 O.2       1 <0>         0.0000
     20 Cl1        13.8840   -1.8490   21.2740 Cl        1 <0>         0.0000
     21 H1          2.1329    0.7115   20.9297 H         1 <0>         0.0000
     22 H2          1.7270    1.5538   18.6451 H         1 <0>         0.0000
     23 H3         12.2249    1.2198   24.6546 H         1 <0>         0.0000
     24 H4          4.3549   -0.1691   21.5769 H         1 <0>         0.0000
     25 H5          9.8763    0.5350   24.3454 H         1 <0>         0.0000
     26 H6          3.5456    1.5329   16.9440 H         1 <0>         0.0000
     27 H7         14.0077    0.1988   23.2842 H         1 <0>         0.0000
     28 H8         11.0892   -2.3008   21.3624 H         1 <0>         0.0000
     29 H9          8.1087   -0.1875   17.9854 H         1 <0>         0.0000
     30 H10         8.7774   -2.2383   22.1732 H         1 <0>         0.0000
     31 H11         8.2557   -1.0153   23.3257 H         1 <0>         0.0000
     32 H12         6.2507    0.8031   16.6405 H         1 <0>         0.0000
     33 H13         6.8990   -1.6701   21.0749 H         1 <0>         0.0000
@<TRIPOS>BOND
     1    1    2 ar
     2    1    4 ar
     3    2    6 ar
     4    3    5 ar
     5    3    7 ar
     6    4   10 ar
     7    5   11 ar
     8    6   12 ar
     9    7   14 ar
    10    8   11 ar
    11    8   14 ar
    12    9   13 2
    13    9   17 1
    14   10   12 ar
    15   10   13 1
    16   11   16 1
    17   12   17 1
    18   13   18 1
    19   14   20 1
    20   15   16 1
    21   15   18 am
    22   15   19 2
    23    1   21 1
    24    2   22 1
    25    3   23 1
    26    4   24 1
    27    5   25 1
    28    6   26 1
    29    7   27 1
    30    8   28 1
    31    9   29 1
    32   16   30 1
    33   16   31 1
    34   17   32 1
    35   18   33 1
