@<TRIPOS>MOLECULE
JIN-POS-6dc588a4-7_1
   33    35     0     0     0
SMALL
NO_CHARGES

@<TRIPOS>ATOM
      1 C1          5.4868    3.0155   21.2582 C.ar      1 <0>         0.0000
      2 C2          4.7679    3.5641   20.2020 C.ar      1 <0>         0.0000
      3 C3         11.9780    0.4600   23.9150 C.ar      1 <0>         0.0000
      4 C4          6.0876    1.7698   21.1058 C.ar      1 <0>         0.0000
      5 C5         10.6560    0.0720   23.7350 C.ar      1 <0>         0.0000
      6 C6          4.6514    2.8665   18.9961 C.ar      1 <0>         0.0000
      7 C7         12.9840   -0.1200   23.1530 C.ar      1 <0>         0.0000
      8 C8         11.3360   -1.5050   22.0650 C.ar      1 <0>         0.0000
      9 C9          5.7246   -0.2399   17.5629 C.ar      1 <0>         0.0000
     10 C10         5.9659    1.0746   19.8900 C.ar      1 <0>         0.0000
     11 C11        10.3220   -0.8940   22.7910 C.ar      1 <0>         0.0000
     12 C12         5.2425    1.6184   18.8160 C.ar      1 <0>         0.0000
     13 C13        12.6400   -1.1000   22.2390 C.ar      1 <0>         0.0000
     14 C14         6.5420   -0.1737   19.6724 C.ar      1 <0>         0.0000
     15 C15         8.3880   -0.3240   21.3070 C.2       1 <0>         0.0000
     16 C16         8.8810   -1.1900   22.4510 C.3       1 <0>         0.0000
     17 N1          5.1199    0.9623   17.6488 N.ar      1 <0>         0.0000
     18 N2          6.4389   -0.8577   18.5174 N.ar      1 <0>         0.0000
     19 N3          7.2820   -0.7860   20.6970 N.am      1 <0>         0.0000
     20 O1          8.9170    0.7530   21.0260 O.2       1 <0>         0.0000
     21 Cl1        13.8840   -1.8490   21.2740 Cl        1 <0>         0.0000
     22 H1          5.5777    3.5551   22.1959 H         1 <0>         0.0000
     23 H2          4.2946    4.5354   20.3131 H         1 <0>         0.0000
     24 H3         12.2249    1.2198   24.6546 H         1 <0>         0.0000
     25 H4          6.6435    1.3612   21.9458 H         1 <0>         0.0000
     26 H5          9.8763    0.5350   24.3454 H         1 <0>         0.0000
     27 H6          4.0830    3.3172   18.1847 H         1 <0>         0.0000
     28 H7         14.0077    0.1988   23.2842 H         1 <0>         0.0000
     29 H8         11.0892   -2.3008   21.3624 H         1 <0>         0.0000
     30 H9          5.6213   -0.7637   16.6204 H         1 <0>         0.0000
     31 H10         8.7774   -2.2383   22.1732 H         1 <0>         0.0000
     32 H11         8.2557   -1.0153   23.3257 H         1 <0>         0.0000
     33 H12         6.9379   -1.6938   21.0184 H         1 <0>         0.0000
@<TRIPOS>BOND
     1    1    2 ar
     2    1    4 ar
     3    2    6 ar
     4    3    5 ar
     5    3    7 ar
     6    4   10 ar
     7    5   11 ar
     8    6   12 ar
     9    7   13 ar
    10    8   11 ar
    11    8   13 ar
    12    9   17 ar
    13    9   18 ar
    14   10   12 ar
    15   10   14 ar
    16   11   16 1
    17   12   17 ar
    18   13   21 1
    19   14   18 ar
    20   14   19 1
    21   15   16 1
    22   15   19 am
    23   15   20 2
    24    1   22 1
    25    2   23 1
    26    3   24 1
    27    4   25 1
    28    5   26 1
    29    6   27 1
    30    7   28 1
    31    8   29 1
    32    9   30 1
    33   16   31 1
    34   16   32 1
    35   19   33 1
