@<TRIPOS>MOLECULE
JIN-POS-6dc588a4-23_1
   38    40     0     0     0
SMALL
NO_CHARGES

@<TRIPOS>ATOM
      1 C1          4.0787    2.0281   21.1996 C.ar      1 <0>         0.0000
      2 C2          3.4459    2.5401   20.0693 C.ar      1 <0>         0.0000
      3 C3         11.9780    0.4600   23.9150 C.ar      1 <0>         0.0000
      4 C4          5.1228    1.1115   21.0637 C.ar      1 <0>         0.0000
      5 C5          3.8541    2.1377   18.7979 C.ar      1 <0>         0.0000
      6 C6         10.6560    0.0720   23.7350 C.ar      1 <0>         0.0000
      7 C7         12.9840   -0.1200   23.1530 C.ar      1 <0>         0.0000
      8 C8         11.3360   -1.5050   22.0650 C.ar      1 <0>         0.0000
      9 C9          6.9503   -0.5831   18.3322 C.ar      1 <0>         0.0000
     10 C10         5.5468    0.6953   19.7911 C.ar      1 <0>         0.0000
     11 C11         4.9035    1.2158   18.6492 C.ar      1 <0>         0.0000
     12 C12        10.3220   -0.8940   22.7910 C.ar      1 <0>         0.0000
     13 C13         6.5902   -0.2221   19.6216 C.ar      1 <0>         0.0000
     14 C14        12.6400   -1.1000   22.2390 C.ar      1 <0>         0.0000
     15 C15         5.3524    0.7789   17.4013 C.ar      1 <0>         0.0000
     16 C16         8.3880   -0.3240   21.3070 C.2       1 <0>         0.0000
     17 C17         5.3284    2.4251   15.6851 C.3       1 <0>         0.0000
     18 C18         8.8810   -1.1900   22.4510 C.3       1 <0>         0.0000
     19 N1          6.3581   -0.1059   17.2168 N.ar      1 <0>         0.0000
     20 N2          7.2820   -0.7860   20.6970 N.am      1 <0>         0.0000
     21 O1          8.9170    0.7530   21.0260 O.2       1 <0>         0.0000
     22 O2          4.7661    1.2493   16.2538 O.3       1 <0>         0.0000
     23 Cl1        13.8840   -1.8490   21.2740 Cl        1 <0>         0.0000
     24 H1          3.7599    2.3423   22.1895 H         1 <0>         0.0000
     25 H2          2.6339    3.2530   20.1786 H         1 <0>         0.0000
     26 H3         12.2249    1.2198   24.6546 H         1 <0>         0.0000
     27 H4          5.5925    0.7342   21.9690 H         1 <0>         0.0000
     28 H5          3.3423    2.5533   17.9329 H         1 <0>         0.0000
     29 H6          9.8763    0.5350   24.3454 H         1 <0>         0.0000
     30 H7         14.0077    0.1988   23.2842 H         1 <0>         0.0000
     31 H8         11.0892   -2.3009   21.3624 H         1 <0>         0.0000
     32 H9          7.7531   -1.2912   18.1474 H         1 <0>         0.0000
     33 H10         4.7754    2.6942   14.7819 H         1 <0>         0.0000
     34 H11         6.3791    2.2469   15.4424 H         1 <0>         0.0000
     35 H12         5.2569    3.2397   16.4097 H         1 <0>         0.0000
     36 H13         8.7774   -2.2383   22.1732 H         1 <0>         0.0000
     37 H14         8.2557   -1.0153   23.3257 H         1 <0>         0.0000
     38 H15         6.8982   -1.6620   21.0675 H         1 <0>         0.0000
@<TRIPOS>BOND
     1    1    2 ar
     2    1    4 ar
     3    2    5 ar
     4    3    6 ar
     5    3    7 ar
     6    4   10 ar
     7    5   11 ar
     8    6   12 ar
     9    7   14 ar
    10    8   12 ar
    11    8   14 ar
    12    9   13 ar
    13    9   19 ar
    14   10   11 ar
    15   10   13 ar
    16   11   15 ar
    17   12   18 1
    18   13   20 1
    19   14   23 1
    20   15   19 ar
    21   15   22 1
    22   16   18 1
    23   16   20 am
    24   16   21 2
    25   17   22 1
    26    1   24 1
    27    2   25 1
    28    3   26 1
    29    4   27 1
    30    5   28 1
    31    6   29 1
    32    7   30 1
    33    8   31 1
    34    9   32 1
    35   17   33 1
    36   17   34 1
    37   17   35 1
    38   18   36 1
    39   18   37 1
    40   20   38 1
