@<TRIPOS>MOLECULE
JIN-POS-6dc588a4-21_1
   35    37     0     0     0
SMALL
NO_CHARGES

@<TRIPOS>ATOM
      1 C1          5.5843    3.1122   20.9288 C.ar      1 <0>         0.0000
      2 C2          4.9118    3.6158   19.8222 C.ar      1 <0>         0.0000
      3 C3         11.9780    0.4600   23.9150 C.ar      1 <0>         0.0000
      4 C4          6.1455    1.8397   20.8713 C.ar      1 <0>         0.0000
      5 C5         10.6560    0.0720   23.7350 C.ar      1 <0>         0.0000
      6 C6          4.8021    2.8463   18.6613 C.ar      1 <0>         0.0000
      7 C7         12.9840   -0.1200   23.1530 C.ar      1 <0>         0.0000
      8 C8         11.3360   -1.5050   22.0650 C.ar      1 <0>         0.0000
      9 C9          5.7802   -0.3788   17.4006 C.ar      1 <0>         0.0000
     10 C10         6.0350    1.0660   19.7034 C.ar      1 <0>         0.0000
     11 C11        10.3220   -0.8940   22.7910 C.ar      1 <0>         0.0000
     12 C12         5.3538    1.5710   18.5761 C.ar      1 <0>         0.0000
     13 C13         6.5903   -0.2179   19.6183 C.ar      1 <0>         0.0000
     14 C14         6.4641   -0.9568   18.4508 C.ar      1 <0>         0.0000
     15 C15        12.6400   -1.1000   22.2390 C.ar      1 <0>         0.0000
     16 C16         8.3880   -0.3240   21.3070 C.2       1 <0>         0.0000
     17 C17         8.8810   -1.1900   22.4510 C.3       1 <0>         0.0000
     18 N1          5.2297    0.8562   17.4418 N.ar      1 <0>         0.0000
     19 N2          7.2820   -0.7860   20.6970 N.am      1 <0>         0.0000
     20 O1          8.9170    0.7530   21.0260 O.2       1 <0>         0.0000
     21 O2          6.9845   -2.2038   18.3220 O.3       1 <0>         0.0000
     22 Cl1        13.8840   -1.8490   21.2740 Cl        1 <0>         0.0000
     23 H1          5.6716    3.7073   21.8327 H         1 <0>         0.0000
     24 H2          4.4709    4.6077   19.8582 H         1 <0>         0.0000
     25 H3         12.2249    1.2198   24.6546 H         1 <0>         0.0000
     26 H4          6.6658    1.4718   21.7523 H         1 <0>         0.0000
     27 H5          9.8763    0.5350   24.3454 H         1 <0>         0.0000
     28 H6          4.2703    3.2638   17.8082 H         1 <0>         0.0000
     29 H7         14.0077    0.1988   23.2842 H         1 <0>         0.0000
     30 H8         11.0892   -2.3009   21.3624 H         1 <0>         0.0000
     31 H9          5.6462   -0.9047   16.4603 H         1 <0>         0.0000
     32 H10         8.7774   -2.2383   22.1732 H         1 <0>         0.0000
     33 H11         8.2557   -1.0153   23.3257 H         1 <0>         0.0000
     34 H12         6.8980   -1.6603   21.0660 H         1 <0>         0.0000
     35 H13         6.7958   -2.5614   17.4383 H         1 <0>         0.0000
@<TRIPOS>BOND
     1    1    2 ar
     2    1    4 ar
     3    2    6 ar
     4    3    5 ar
     5    3    7 ar
     6    4   10 ar
     7    5   11 ar
     8    6   12 ar
     9    7   15 ar
    10    8   11 ar
    11    8   15 ar
    12    9   14 ar
    13    9   18 ar
    14   10   12 ar
    15   10   13 ar
    16   11   17 1
    17   12   18 ar
    18   13   14 ar
    19   13   19 1
    20   14   21 1
    21   15   22 1
    22   16   17 1
    23   16   19 am
    24   16   20 2
    25    1   23 1
    26    2   24 1
    27    3   25 1
    28    4   26 1
    29    5   27 1
    30    6   28 1
    31    7   29 1
    32    8   30 1
    33    9   31 1
    34   17   32 1
    35   17   33 1
    36   19   34 1
    37   21   35 1
