@<TRIPOS>MOLECULE
JIN-POS-6dc588a4-13_1
   34    36     0     0     0
SMALL
NO_CHARGES

@<TRIPOS>ATOM
      1 C1          5.5338    3.1327   20.8428 C.ar      1 <0>         0.0000
      2 C2         11.9780    0.4600   23.9150 C.ar      1 <0>         0.0000
      3 C3          6.1114    1.8620   20.8212 C.ar      1 <0>         0.0000
      4 C4         10.6560    0.0720   23.7350 C.ar      1 <0>         0.0000
      5 C5          4.8609    3.6142   19.7222 C.ar      1 <0>         0.0000
      6 C6         12.9840   -0.1200   23.1530 C.ar      1 <0>         0.0000
      7 C7         11.3360   -1.5050   22.0650 C.ar      1 <0>         0.0000
      8 C8          5.2717    0.7175   17.4210 C.ar      1 <0>         0.0000
      9 C9          6.4588   -0.9562   18.4527 C.ar      1 <0>         0.0000
     10 C10         6.0219    1.0559   19.6745 C.ar      1 <0>         0.0000
     11 C11         5.3399    1.5470   18.5421 C.ar      1 <0>         0.0000
     12 C12        10.3220   -0.8940   22.7910 C.ar      1 <0>         0.0000
     13 C13         6.5902   -0.2221   19.6216 C.ar      1 <0>         0.0000
     14 C14         4.7626    2.8272   18.5750 C.ar      1 <0>         0.0000
     15 C15        12.6400   -1.1000   22.2390 C.ar      1 <0>         0.0000
     16 C16         8.3880   -0.3240   21.3070 C.2       1 <0>         0.0000
     17 C17         8.8810   -1.1900   22.4510 C.3       1 <0>         0.0000
     18 N1          5.8138   -0.5192   17.3502 N.ar      1 <0>         0.0000
     19 N2          7.2820   -0.7860   20.6970 N.am      1 <0>         0.0000
     20 O1          8.9170    0.7530   21.0260 O.2       1 <0>         0.0000
     21 F1          4.1103    3.3083   17.5063 F         1 <0>         0.0000
     22 Cl1        13.8840   -1.8490   21.2740 Cl        1 <0>         0.0000
     23 H1          5.6100    3.7477   21.7348 H         1 <0>         0.0000
     24 H2         12.2249    1.2198   24.6546 H         1 <0>         0.0000
     25 H3          6.6292    1.5213   21.7149 H         1 <0>         0.0000
     26 H4          9.8763    0.5350   24.3454 H         1 <0>         0.0000
     27 H5          4.4132    4.6034   19.7417 H         1 <0>         0.0000
     28 H6         14.0077    0.1988   23.2842 H         1 <0>         0.0000
     29 H7         11.0892   -2.3009   21.3624 H         1 <0>         0.0000
     30 H8          4.7612    1.0326   16.5150 H         1 <0>         0.0000
     31 H9          6.8826   -1.9522   18.3612 H         1 <0>         0.0000
     32 H10         8.7774   -2.2383   22.1732 H         1 <0>         0.0000
     33 H11         8.2557   -1.0153   23.3257 H         1 <0>         0.0000
     34 H12         6.8981   -1.6619   21.0675 H         1 <0>         0.0000
@<TRIPOS>BOND
     1    1    3 ar
     2    1    5 ar
     3    2    4 ar
     4    2    6 ar
     5    3   10 ar
     6    4   12 ar
     7    5   14 ar
     8    6   15 ar
     9    7   12 ar
    10    7   15 ar
    11    8   11 ar
    12    8   18 ar
    13    9   13 ar
    14    9   18 ar
    15   10   11 ar
    16   10   13 ar
    17   11   14 ar
    18   12   17 1
    19   13   19 1
    20   14   21 1
    21   15   22 1
    22   16   17 1
    23   16   19 am
    24   16   20 2
    25    1   23 1
    26    2   24 1
    27    3   25 1
    28    4   26 1
    29    5   27 1
    30    6   28 1
    31    7   29 1
    32    8   30 1
    33    9   31 1
    34   17   32 1
    35   17   33 1
    36   19   34 1
