@<TRIPOS>MOLECULE
JIN-POS-6dc588a4-6_1
   41    42     0     0     0
SMALL
NO_CHARGES

@<TRIPOS>ATOM
      1 C1         11.9780    0.4600   23.9150 C.ar      1 <0>         0.0000
      2 C2         10.6560    0.0720   23.7350 C.ar      1 <0>         0.0000
      3 C3         12.9840   -0.1200   23.1530 C.ar      1 <0>         0.0000
      4 C4          4.6059    0.7094   18.6371 C.ar      1 <0>         0.0000
      5 C5         11.3360   -1.5050   22.0650 C.ar      1 <0>         0.0000
      6 C6          5.3270    0.8635   17.4641 C.ar      1 <0>         0.0000
      7 C7          7.2224   -0.0294   18.4067 C.ar      1 <0>         0.0000
      8 C8         10.3220   -0.8940   22.7910 C.ar      1 <0>         0.0000
      9 C9          6.5902   -0.2251   19.6240 C.ar      1 <0>         0.0000
     10 C10         5.2569    0.1540   19.7330 C.ar      1 <0>         0.0000
     11 C11        12.6400   -1.1000   22.2390 C.ar      1 <0>         0.0000
     12 C12         8.3880   -0.3240   21.3070 C.2       1 <0>         0.0000
     13 C13         4.7578    2.3792   21.0384 C.3       1 <0>         0.0000
     14 C14         3.3036    1.0684   22.6121 C.3       1 <0>         0.0000
     15 C15         5.8031    0.8759   22.7653 C.3       1 <0>         0.0000
     16 C16         8.8810   -1.1900   22.4510 C.3       1 <0>         0.0000
     17 C17         4.6138    1.0787   21.8276 C.3       1 <0>         0.0000
     18 N1          6.6231    0.5071   17.3201 N.ar      1 <0>         0.0000
     19 N2          7.2820   -0.7860   20.6970 N.am      1 <0>         0.0000
     20 O1          8.9170    0.7530   21.0260 O.2       1 <0>         0.0000
     21 O2          4.5714   -0.0105   20.9049 O.3       1 <0>         0.0000
     22 Cl1        13.8840   -1.8490   21.2740 Cl        1 <0>         0.0000
     23 H1         12.2249    1.2198   24.6546 H         1 <0>         0.0000
     24 H2          9.8763    0.5350   24.3454 H         1 <0>         0.0000
     25 H3         14.0077    0.1988   23.2842 H         1 <0>         0.0000
     26 H4          3.5668    1.0142   18.6930 H         1 <0>         0.0000
     27 H5         11.0892   -2.3009   21.3624 H         1 <0>         0.0000
     28 H6          4.8654    1.2916   16.5804 H         1 <0>         0.0000
     29 H7          8.2626   -0.3045   18.2597 H         1 <0>         0.0000
     30 H8          5.6970    2.3905   20.4739 H         1 <0>         0.0000
     31 H9          3.9288    2.5193   20.3370 H         1 <0>         0.0000
     32 H10         4.7913    3.2434   21.7116 H         1 <0>         0.0000
     33 H11         3.1961    0.1370   23.1798 H         1 <0>         0.0000
     34 H12         2.4430    1.1183   21.9352 H         1 <0>         0.0000
     35 H13         3.2444    1.9091   23.3108 H         1 <0>         0.0000
     36 H14         5.7001   -0.0569   23.3314 H         1 <0>         0.0000
     37 H15         6.7493    0.8437   22.2154 H         1 <0>         0.0000
     38 H16         5.8577    1.6824   23.5054 H         1 <0>         0.0000
     39 H17         8.7774   -2.2383   22.1732 H         1 <0>         0.0000
     40 H18         8.2557   -1.0153   23.3257 H         1 <0>         0.0000
     41 H19         6.8983   -1.6631   21.0685 H         1 <0>         0.0000
@<TRIPOS>BOND
     1    1    2 ar
     2    1    3 ar
     3    2    8 ar
     4    3   11 ar
     5    4    6 ar
     6    4   10 ar
     7    5    8 ar
     8    5   11 ar
     9    6   18 ar
    10    7    9 ar
    11    7   18 ar
    12    8   16 1
    13    9   10 ar
    14    9   19 1
    15   10   21 1
    16   11   22 1
    17   12   16 1
    18   12   19 am
    19   12   20 2
    20   13   17 1
    21   14   17 1
    22   15   17 1
    23   17   21 1
    24    1   23 1
    25    2   24 1
    26    3   25 1
    27    4   26 1
    28    5   27 1
    29    6   28 1
    30    7   29 1
    31   13   30 1
    32   13   31 1
    33   13   32 1
    34   14   33 1
    35   14   34 1
    36   14   35 1
    37   15   36 1
    38   15   37 1
    39   15   38 1
    40   16   39 1
    41   16   40 1
    42   19   41 1
