@<TRIPOS>MOLECULE
JIN-POS-6dc588a4-3_1
   32    33     0     0     0
SMALL
NO_CHARGES

@<TRIPOS>ATOM
      1 C1         11.9780    0.4600   23.9150 C.ar      1 <0>         0.0000
      2 C2         10.6560    0.0720   23.7350 C.ar      1 <0>         0.0000
      3 C3         12.9840   -0.1200   23.1530 C.ar      1 <0>         0.0000
      4 C4          5.3714    1.6035   18.5930 C.ar      1 <0>         0.0000
      5 C5         11.3360   -1.5050   22.0650 C.ar      1 <0>         0.0000
      6 C6          5.2766    0.8264   17.4498 C.ar      1 <0>         0.0000
      7 C7          6.4412   -0.9006   18.4191 C.ar      1 <0>         0.0000
      8 C8         10.3220   -0.8940   22.7910 C.ar      1 <0>         0.0000
      9 C9          6.5908   -0.2043   19.6076 C.ar      1 <0>         0.0000
     10 C10         6.0427    1.0710   19.6880 C.ar      1 <0>         0.0000
     11 C11        12.6400   -1.1000   22.2390 C.ar      1 <0>         0.0000
     12 C12         8.3880   -0.3240   21.3070 C.2       1 <0>         0.0000
     13 C13         5.1156    1.6687   21.7949 C.3       1 <0>         0.0000
     14 C14         8.8810   -1.1900   22.4510 C.3       1 <0>         0.0000
     15 N1          5.7960   -0.4164   17.3342 N.ar      1 <0>         0.0000
     16 N2          7.2820   -0.7860   20.6970 N.am      1 <0>         0.0000
     17 O1          8.9170    0.7530   21.0260 O.2       1 <0>         0.0000
     18 O2          6.1525    1.8116   20.8263 O.3       1 <0>         0.0000
     19 Cl1        13.8840   -1.8490   21.2740 Cl        1 <0>         0.0000
     20 H1         12.2249    1.2198   24.6546 H         1 <0>         0.0000
     21 H2          9.8763    0.5350   24.3454 H         1 <0>         0.0000
     22 H3         14.0077    0.1988   23.2842 H         1 <0>         0.0000
     23 H4          4.9340    2.5951   18.6269 H         1 <0>         0.0000
     24 H5         11.0892   -2.3009   21.3624 H         1 <0>         0.0000
     25 H6          4.7631    1.1955   16.5681 H         1 <0>         0.0000
     26 H7          6.8474   -1.8999   18.2949 H         1 <0>         0.0000
     27 H8          5.3253    2.3133   22.6521 H         1 <0>         0.0000
     28 H9          5.0565    0.6256   22.1157 H         1 <0>         0.0000
     29 H10         4.1650    1.9636   21.3442 H         1 <0>         0.0000
     30 H11         8.7709   -2.2387   22.1706 H         1 <0>         0.0000
     31 H12         8.2491   -1.0157   23.3232 H         1 <0>         0.0000
     32 H13         6.8973   -1.6552   21.0612 H         1 <0>         0.0000
@<TRIPOS>BOND
     1    1    2 ar
     2    1    3 ar
     3    2    8 ar
     4    3   11 ar
     5    4    6 ar
     6    4   10 ar
     7    5    8 ar
     8    5   11 ar
     9    6   15 ar
    10    7    9 ar
    11    7   15 ar
    12    8   14 1
    13    9   10 ar
    14    9   16 1
    15   10   18 1
    16   11   19 1
    17   12   14 1
    18   12   16 am
    19   12   17 2
    20   13   18 1
    21    1   20 1
    22    2   21 1
    23    3   22 1
    24    4   23 1
    25    5   24 1
    26    6   25 1
    27    7   26 1
    28   13   27 1
    29   13   28 1
    30   13   29 1
    31   14   30 1
    32   14   31 1
    33   16   32 1
