@<TRIPOS>MOLECULE
JOH-UNI-abfda500-4_1
   30    31     0     0     0
SMALL
NO_CHARGES

@<TRIPOS>ATOM
      1 C1         11.9780    0.4600   23.9150 C.ar      1 <0>         0.0000
      2 C2         10.6560    0.0720   23.7350 C.ar      1 <0>         0.0000
      3 C3         12.9840   -0.1200   23.1530 C.ar      1 <0>         0.0000
      4 C4          4.6270    0.7566   18.6054 C.ar      1 <0>         0.0000
      5 C5         11.3360   -1.5050   22.0650 C.ar      1 <0>         0.0000
      6 C6          5.3621    0.9100   17.4410 C.ar      1 <0>         0.0000
      7 C7          7.2379   -0.0081   18.3983 C.ar      1 <0>         0.0000
      8 C8          5.2604    0.1880   19.7048 C.ar      1 <0>         0.0000
      9 C9         10.3220   -0.8940   22.7910 C.ar      1 <0>         0.0000
     10 C10         6.5908   -0.2043   19.6076 C.ar      1 <0>         0.0000
     11 C11        12.6400   -1.1000   22.2390 C.ar      1 <0>         0.0000
     12 C12         4.5020    0.0124   20.9570 C.2       1 <0>         0.0000
     13 C13         8.3880   -0.3240   21.3070 C.2       1 <0>         0.0000
     14 C14         8.8810   -1.1900   22.4510 C.3       1 <0>         0.0000
     15 N1          6.6559    0.5409   17.3086 N.ar      1 <0>         0.0000
     16 N2          7.2820   -0.7860   20.6970 N.am      1 <0>         0.0000
     17 O1          3.8571   -1.0860   21.1390 O.co2     1 <0>         0.0000
     18 O2          4.5118    0.9637   21.8232 O.co2     1 <0>         0.0000
     19 O3          8.9170    0.7530   21.0260 O.2       1 <0>         0.0000
     20 Cl1        13.8840   -1.8490   21.2740 Cl        1 <0>         0.0000
     21 H1         12.2249    1.2198   24.6546 H         1 <0>         0.0000
     22 H2          9.8763    0.5350   24.3454 H         1 <0>         0.0000
     23 H3         14.0077    0.1988   23.2842 H         1 <0>         0.0000
     24 H4          3.5904    1.0738   18.6471 H         1 <0>         0.0000
     25 H5         11.0892   -2.3009   21.3624 H         1 <0>         0.0000
     26 H6          4.9157    1.3505   16.5555 H         1 <0>         0.0000
     27 H7          8.2762   -0.2950   18.2597 H         1 <0>         0.0000
     28 H8          8.7709   -2.2387   22.1706 H         1 <0>         0.0000
     29 H9          8.2491   -1.0157   23.3232 H         1 <0>         0.0000
     30 H10         6.8973   -1.6552   21.0612 H         1 <0>         0.0000
@<TRIPOS>BOND
     1    1    2 ar
     2    1    3 ar
     3    2    9 ar
     4    3   11 ar
     5    4    6 ar
     6    4    8 ar
     7    5    9 ar
     8    5   11 ar
     9    6   15 ar
    10    7   10 ar
    11    7   15 ar
    12    8   10 ar
    13    8   12 1
    14    9   14 1
    15   10   16 1
    16   11   20 1
    17   12   17 1
    18   12   18 2
    19   13   14 1
    20   13   16 am
    21   13   19 2
    22    1   21 1
    23    2   22 1
    24    3   23 1
    25    4   24 1
    26    5   25 1
    27    6   26 1
    28    7   27 1
    29   14   28 1
    30   14   29 1
    31   16   30 1
