@<TRIPOS>MOLECULE
MAT-POS-4211dce8-1_1
   38    40     0     0     0
SMALL
NO_CHARGES

@<TRIPOS>ATOM
      1 C1          4.1745    2.1975   21.2885 C.ar      1 <0>         0.0000
      2 C2          3.6077    2.8023   20.1718 C.ar      1 <0>         0.0000
      3 C3         11.9780    0.4600   23.9150 C.ar      1 <0>         0.0000
      4 C4          5.1756    1.2342   21.1349 C.ar      1 <0>         0.0000
      5 C5          4.0394    2.4463   18.8969 C.ar      1 <0>         0.0000
      6 C6         10.6560    0.0720   23.7350 C.ar      1 <0>         0.0000
      7 C7         12.9840   -0.1200   23.1530 C.ar      1 <0>         0.0000
      8 C8         11.3360   -1.5050   22.0650 C.ar      1 <0>         0.0000
      9 C9          5.6280    0.8584   19.8595 C.ar      1 <0>         0.0000
     10 C10         5.0437    1.4800   18.7403 C.ar      1 <0>         0.0000
     11 C11        10.3220   -0.8940   22.7910 C.ar      1 <0>         0.0000
     12 C12        12.6400   -1.1000   22.2390 C.ar      1 <0>         0.0000
     13 C13         7.0475   -0.4462   18.3900 C.2       1 <0>         0.0000
     14 C14         6.6808   -0.1519   19.6452 C.2       1 <0>         0.0000
     15 C15         5.4870    1.1173   17.3652 C.2       1 <0>         0.0000
     16 C16         8.3880   -0.3240   21.3070 C.2       1 <0>         0.0000
     17 C17         6.9909   -0.2728   15.9693 C.3       1 <0>         0.0000
     18 C18         8.8810   -1.1900   22.4510 C.3       1 <0>         0.0000
     19 N1          6.4913    0.1477   17.2745 N.am      1 <0>         0.0000
     20 N2          7.2820   -0.7860   20.6970 N.am      1 <0>         0.0000
     21 O1          4.9628    1.6717   16.4019 O.2       1 <0>         0.0000
     22 O2          8.9170    0.7530   21.0260 O.2       1 <0>         0.0000
     23 Cl1        13.8840   -1.8490   21.2740 Cl        1 <0>         0.0000
     24 H1          3.8386    2.4752   22.2836 H         1 <0>         0.0000
     25 H2          2.8304    3.5508   20.2941 H         1 <0>         0.0000
     26 H3         12.2249    1.2198   24.6546 H         1 <0>         0.0000
     27 H4          5.5863    0.7925   22.0384 H         1 <0>         0.0000
     28 H5          3.5824    2.9319   18.0390 H         1 <0>         0.0000
     29 H6          9.8763    0.5350   24.3454 H         1 <0>         0.0000
     30 H7         14.0077    0.1988   23.2842 H         1 <0>         0.0000
     31 H8         11.0892   -2.3009   21.3624 H         1 <0>         0.0000
     32 H9          7.8189   -1.1844   18.1885 H         1 <0>         0.0000
     33 H10         6.3953   -1.1226   15.6045 H         1 <0>         0.0000
     34 H11         6.9100    0.5632   15.2590 H         1 <0>         0.0000
     35 H12         8.0444   -0.5759   16.0603 H         1 <0>         0.0000
     36 H13         8.2535   -1.0146   23.3240 H         1 <0>         0.0000
     37 H14         8.7756   -2.2377   22.1724 H         1 <0>         0.0000
     38 H15         6.8580   -1.6463   21.0202 H         1 <0>         0.0000
@<TRIPOS>BOND
     1    1    2 ar
     2    1    4 ar
     3    2    5 ar
     4    3    6 ar
     5    3    7 ar
     6    4    9 ar
     7    5   10 ar
     8    6   11 ar
     9    7   12 ar
    10    8   11 ar
    11    8   12 ar
    12    9   10 ar
    13    9   14 1
    14   10   15 1
    15   11   18 1
    16   12   23 1
    17   13   14 2
    18   13   19 1
    19   14   20 1
    20   15   19 am
    21   15   21 2
    22   16   18 1
    23   16   20 am
    24   16   22 2
    25   17   19 1
    26    1   24 1
    27    2   25 1
    28    3   26 1
    29    4   27 1
    30    5   28 1
    31    6   29 1
    32    7   30 1
    33    8   31 1
    34   13   32 1
    35   17   33 1
    36   17   34 1
    37   17   35 1
    38   18   36 1
    39   18   37 1
    40   20   38 1
