@<TRIPOS>MOLECULE
MAT-POS-fce787c2-1_1
   41    43     0     0     0
SMALL
NO_CHARGES

@<TRIPOS>ATOM
      1 C1          3.4430    2.5368   20.0698 C.ar      1 <0>         0.0000
      2 C2          4.0769    2.0258   21.2000 C.ar      1 <0>         0.0000
      3 C3         11.9780    0.4600   23.9150 C.ar      1 <0>         0.0000
      4 C4          3.8513    2.1346   18.7983 C.ar      1 <0>         0.0000
      5 C5          5.1219    1.1103   21.0638 C.ar      1 <0>         0.0000
      6 C6         10.6560    0.0720   23.7350 C.ar      1 <0>         0.0000
      7 C7         12.9840   -0.1200   23.1530 C.ar      1 <0>         0.0000
      8 C8          5.3505    0.7771   17.4015 C.ar      1 <0>         0.0000
      9 C9          6.9502   -0.5829   18.3321 C.ar      1 <0>         0.0000
     10 C10         4.9016    1.2138   18.6494 C.ar      1 <0>         0.0000
     11 C11         5.5459    0.6942   19.7912 C.ar      1 <0>         0.0000
     12 C12        10.3220   -0.8940   22.7910 C.ar      1 <0>         0.0000
     13 C13         6.5902   -0.2221   19.6216 C.ar      1 <0>         0.0000
     14 C14        11.3360   -1.5050   22.0650 C.ar      1 <0>         0.0000
     15 C15        12.6400   -1.1000   22.2390 C.ar      1 <0>         0.0000
     16 C16         8.3880   -0.3240   21.3070 C.2       1 <0>         0.0000
     17 C17         9.7593   -3.1076   19.2450 C.3       1 <0>         0.0000
     18 C18         8.8810   -1.1900   22.4510 C.3       1 <0>         0.0000
     19 C19        10.7305   -2.1144   19.8466 C.3       1 <0>         0.0000
     20 N1          6.3571   -0.1067   17.2168 N.ar      1 <0>         0.0000
     21 N2          7.2820   -0.7860   20.6970 N.am      1 <0>         0.0000
     22 O1          8.9170    0.7530   21.0260 O.2       1 <0>         0.0000
     23 O2         11.0227   -2.5039   21.1861 O.3       1 <0>         0.0000
     24 Cl1        13.8840   -1.8490   21.2740 Cl        1 <0>         0.0000
     25 H1          2.6302    3.2488   20.1787 H         1 <0>         0.0000
     26 H2          3.7572    2.3402   22.1894 H         1 <0>         0.0000
     27 H3         12.2258    1.2199   24.6540 H         1 <0>         0.0000
     28 H4          3.3454    2.5434   17.9266 H         1 <0>         0.0000
     29 H5          5.5921    0.7346   21.9697 H         1 <0>         0.0000
     30 H6          9.8767    0.5347   24.3460 H         1 <0>         0.0000
     31 H7         14.0072    0.1991   23.2856 H         1 <0>         0.0000
     32 H8          4.8980    1.1375   16.4818 H         1 <0>         0.0000
     33 H9          7.7536   -1.2906   18.1476 H         1 <0>         0.0000
     34 H10        10.1887   -4.1132   19.2302 H         1 <0>         0.0000
     35 H11         8.8261   -3.1301   19.8172 H         1 <0>         0.0000
     36 H12         9.4980   -2.8200   18.2212 H         1 <0>         0.0000
     37 H13         8.7775   -2.2383   22.1732 H         1 <0>         0.0000
     38 H14         8.2557   -1.0153   23.3257 H         1 <0>         0.0000
     39 H15        10.2950   -1.1108   19.8585 H         1 <0>         0.0000
     40 H16        11.6627   -2.0938   19.2742 H         1 <0>         0.0000
     41 H17         6.8981   -1.6619   21.0675 H         1 <0>         0.0000
@<TRIPOS>BOND
     1    1    2 ar
     2    1    4 ar
     3    2    5 ar
     4    3    6 ar
     5    3    7 ar
     6    4   10 ar
     7    5   11 ar
     8    6   12 ar
     9    7   15 ar
    10    8   10 ar
    11    8   20 ar
    12    9   13 ar
    13    9   20 ar
    14   10   11 ar
    15   11   13 ar
    16   12   14 ar
    17   12   18 1
    18   13   21 1
    19   14   15 ar
    20   14   23 1
    21   15   24 1
    22   16   18 1
    23   16   21 am
    24   16   22 2
    25   17   19 1
    26   19   23 1
    27    1   25 1
    28    2   26 1
    29    3   27 1
    30    4   28 1
    31    5   29 1
    32    6   30 1
    33    7   31 1
    34    8   32 1
    35    9   33 1
    36   17   34 1
    37   17   35 1
    38   17   36 1
    39   18   37 1
    40   18   38 1
    41   19   39 1
    42   19   40 1
    43   21   41 1
