@<TRIPOS>MOLECULE
MAT-POS-bb423b95-7_1
   37    39     0     0     0
SMALL
NO_CHARGES

@<TRIPOS>ATOM
      1 C1          4.8097    3.6913   20.5777 C.ar      1 <0>         0.0000
      2 C2          5.5026    3.0196   21.5821 C.ar      1 <0>         0.0000
      3 C3         11.9780    0.4600   23.9150 C.ar      1 <0>         0.0000
      4 C4          4.7015    3.1272   19.3067 C.ar      1 <0>         0.0000
      5 C5          6.0906    1.7809   21.3202 C.ar      1 <0>         0.0000
      6 C6         10.6560    0.0720   23.7350 C.ar      1 <0>         0.0000
      7 C7         12.9840   -0.1200   23.1530 C.ar      1 <0>         0.0000
      8 C8         11.3360   -1.5050   22.0650 C.ar      1 <0>         0.0000
      9 C9          5.2119    1.2709   17.7785 C.ar      1 <0>         0.0000
     10 C10         6.4277   -0.5506   18.4702 C.ar      1 <0>         0.0000
     11 C11         5.2891    1.8812   19.0320 C.ar      1 <0>         0.0000
     12 C12         5.9915    1.1981   20.0462 C.ar      1 <0>         0.0000
     13 C13        10.3220   -0.8940   22.7910 C.ar      1 <0>         0.0000
     14 C14         6.5697   -0.0422   19.7523 C.ar      1 <0>         0.0000
     15 C15        12.6400   -1.1000   22.2390 C.ar      1 <0>         0.0000
     16 C16         8.3880   -0.3240   21.3070 C.2       1 <0>         0.0000
     17 C17         6.7276   -2.1082   21.1209 C.3       1 <0>         0.0000
     18 C18         8.8810   -1.1900   22.4510 C.3       1 <0>         0.0000
     19 N1          5.7633    0.0743   17.4749 N.ar      1 <0>         0.0000
     20 N2          7.2820   -0.7860   20.6970 N.am      1 <0>         0.0000
     21 O1          8.9170    0.7530   21.0260 O.2       1 <0>         0.0000
     22 Cl1        13.8840   -1.8490   21.2740 Cl        1 <0>         0.0000
     23 H1          4.3531    4.6547   20.7843 H         1 <0>         0.0000
     24 H2          5.5855    3.4606   22.5714 H         1 <0>         0.0000
     25 H3         12.2249    1.2198   24.6546 H         1 <0>         0.0000
     26 H4          4.1569    3.6651   18.5341 H         1 <0>         0.0000
     27 H5          6.6237    1.2879   22.1299 H         1 <0>         0.0000
     28 H6          9.8763    0.5350   24.3454 H         1 <0>         0.0000
     29 H7         14.0077    0.1988   23.2842 H         1 <0>         0.0000
     30 H8         11.0892   -2.3009   21.3624 H         1 <0>         0.0000
     31 H9          4.6857    1.7428   16.9532 H         1 <0>         0.0000
     32 H10         6.8572   -1.5090   18.1924 H         1 <0>         0.0000
     33 H11         7.1174   -2.8981   20.4621 H         1 <0>         0.0000
     34 H12         7.0271   -2.3155   22.1588 H         1 <0>         0.0000
     35 H13         5.6299   -2.0838   21.0540 H         1 <0>         0.0000
     36 H14         8.8006   -2.2403   22.1717 H         1 <0>         0.0000
     37 H15         8.2668   -1.0117   23.3332 H         1 <0>         0.0000
@<TRIPOS>BOND
     1    1    2 ar
     2    1    4 ar
     3    2    5 ar
     4    3    6 ar
     5    3    7 ar
     6    4   11 ar
     7    5   12 ar
     8    6   13 ar
     9    7   15 ar
    10    8   13 ar
    11    8   15 ar
    12    9   11 ar
    13    9   19 ar
    14   10   14 ar
    15   10   19 ar
    16   11   12 ar
    17   12   14 ar
    18   13   18 1
    19   14   20 1
    20   15   22 1
    21   16   18 1
    22   16   20 am
    23   16   21 2
    24   17   20 1
    25    1   23 1
    26    2   24 1
    27    3   25 1
    28    4   26 1
    29    5   27 1
    30    6   28 1
    31    7   29 1
    32    8   30 1
    33    9   31 1
    34   10   32 1
    35   17   33 1
    36   17   34 1
    37   17   35 1
    38   18   36 1
    39   18   37 1
