@<TRIPOS>MOLECULE
MAT-POS-14ad9fe9-1_1
   37    39     0     0     0
SMALL
NO_CHARGES

@<TRIPOS>ATOM
      1 C1         11.9780    0.4600   23.9150 C.ar      1 <0>         0.0000
      2 C2         10.6560    0.0720   23.7350 C.ar      1 <0>         0.0000
      3 C3         12.9840   -0.1200   23.1530 C.ar      1 <0>         0.0000
      4 C4         11.3360   -1.5050   22.0650 C.ar      1 <0>         0.0000
      5 C5          5.2725    0.7504   17.4444 C.ar      1 <0>         0.0000
      6 C6          6.4507   -0.9459   18.4502 C.ar      1 <0>         0.0000
      7 C7          6.0213    1.0499   19.6847 C.ar      1 <0>         0.0000
      8 C8         10.3220   -0.8940   22.7910 C.ar      1 <0>         0.0000
      9 C9          5.3606    1.5740   18.5625 C.ar      1 <0>         0.0000
     10 C10         6.5902   -0.2241   19.6232 C.ar      1 <0>         0.0000
     11 C11        12.6400   -1.1000   22.2390 C.ar      1 <0>         0.0000
     12 C12         8.3880   -0.3240   21.3070 C.2       1 <0>         0.0000
     13 C13         6.1558    1.8787   20.9369 C.3       1 <0>         0.0000
     14 C14         5.0826    2.9657   21.0008 C.3       1 <0>         0.0000
     15 C15         5.0127    3.7333   19.6846 C.3       1 <0>         0.0000
     16 C16         8.8810   -1.1900   22.4510 C.3       1 <0>         0.0000
     17 N1          5.8006   -0.4924   17.3581 N.ar      1 <0>         0.0000
     18 N2          4.7769    2.8291   18.5751 N.pl3     1 <0>         0.0000
     19 N3          7.2820   -0.7860   20.6970 N.am      1 <0>         0.0000
     20 O1          8.9170    0.7530   21.0260 O.2       1 <0>         0.0000
     21 Cl1        13.8840   -1.8490   21.2740 Cl        1 <0>         0.0000
     22 H1         12.2249    1.2198   24.6546 H         1 <0>         0.0000
     23 H2          9.8763    0.5350   24.3454 H         1 <0>         0.0000
     24 H3         14.0077    0.1988   23.2842 H         1 <0>         0.0000
     25 H4         11.0892   -2.3009   21.3624 H         1 <0>         0.0000
     26 H5          4.7498    1.0770   16.5497 H         1 <0>         0.0000
     27 H6          6.8688   -1.9428   18.3457 H         1 <0>         0.0000
     28 H7          6.0650    1.2160   21.8063 H         1 <0>         0.0000
     29 H8          7.1366    2.3655   20.9821 H         1 <0>         0.0000
     30 H9          4.1101    2.5129   21.2245 H         1 <0>         0.0000
     31 H10         5.3052    3.6636   21.8187 H         1 <0>         0.0000
     32 H11         4.2070    4.4759   19.7242 H         1 <0>         0.0000
     33 H12         5.9489    4.2761   19.5170 H         1 <0>         0.0000
     34 H13         8.7774   -2.2383   22.1732 H         1 <0>         0.0000
     35 H14         8.2557   -1.0153   23.3257 H         1 <0>         0.0000
     36 H15         4.0204    3.0276   17.9309 H         1 <0>         0.0000
     37 H16         6.8983   -1.6627   21.0682 H         1 <0>         0.0000
@<TRIPOS>BOND
     1    1    2 ar
     2    1    3 ar
     3    2    8 ar
     4    3   11 ar
     5    4    8 ar
     6    4   11 ar
     7    5    9 ar
     8    5   17 ar
     9    6   10 ar
    10    6   17 ar
    11    7    9 ar
    12    7   10 ar
    13    7   13 1
    14    8   16 1
    15    9   18 1
    16   10   19 1
    17   11   21 1
    18   12   16 1
    19   12   19 am
    20   12   20 2
    21   13   14 1
    22   14   15 1
    23   15   18 1
    24    1   22 1
    25    2   23 1
    26    3   24 1
    27    4   25 1
    28    5   26 1
    29    6   27 1
    30   13   28 1
    31   13   29 1
    32   14   30 1
    33   14   31 1
    34   15   32 1
    35   15   33 1
    36   16   34 1
    37   16   35 1
    38   18   36 1
    39   19   37 1
