@<TRIPOS>MOLECULE
MAT-POS-199e2e7c-1_1
   35    37     0     0     0
SMALL
NO_CHARGES

@<TRIPOS>ATOM
      1 C1         11.9780    0.4600   23.9150 C.ar      1 <0>         0.0000
      2 C2         10.6560    0.0720   23.7350 C.ar      1 <0>         0.0000
      3 C3         12.9840   -0.1200   23.1530 C.ar      1 <0>         0.0000
      4 C4         11.3360   -1.5050   22.0650 C.ar      1 <0>         0.0000
      5 C5          5.3030    0.9024   17.4539 C.ar      1 <0>         0.0000
      6 C6          7.2020   -0.0234   18.3979 C.ar      1 <0>         0.0000
      7 C7          4.6123    0.7266   18.6297 C.ar      1 <0>         0.0000
      8 C8          5.2681    0.1564   19.7199 C.ar      1 <0>         0.0000
      9 C9         10.3220   -0.8940   22.7910 C.ar      1 <0>         0.0000
     10 C10         6.5901   -0.2279   19.6263 C.ar      1 <0>         0.0000
     11 C11        12.6400   -1.1000   22.2390 C.ar      1 <0>         0.0000
     12 C12         8.3880   -0.3240   21.3070 C.2       1 <0>         0.0000
     13 C13         3.2127    1.1080   18.9750 C.3       1 <0>         0.0000
     14 C14         4.3654    0.0989   20.9106 C.3       1 <0>         0.0000
     15 C15         2.9892    0.2767   20.2485 C.3       1 <0>         0.0000
     16 C16         8.8810   -1.1900   22.4510 C.3       1 <0>         0.0000
     17 N1          6.5956    0.5292   17.3122 N.ar      1 <0>         0.0000
     18 N2          7.2820   -0.7860   20.6970 N.am      1 <0>         0.0000
     19 O1          8.9170    0.7530   21.0260 O.2       1 <0>         0.0000
     20 Cl1        13.8840   -1.8490   21.2740 Cl        1 <0>         0.0000
     21 H1         12.2249    1.2198   24.6546 H         1 <0>         0.0000
     22 H2          9.8763    0.5350   24.3454 H         1 <0>         0.0000
     23 H3         14.0077    0.1988   23.2842 H         1 <0>         0.0000
     24 H4         11.0892   -2.3009   21.3624 H         1 <0>         0.0000
     25 H5          4.8451    1.3514   16.5804 H         1 <0>         0.0000
     26 H6          8.2400   -0.3007   18.2360 H         1 <0>         0.0000
     27 H7          3.1537    2.1802   19.1876 H         1 <0>         0.0000
     28 H8          2.4979    0.8398   18.1922 H         1 <0>         0.0000
     29 H9          4.4261   -0.8537   21.4444 H         1 <0>         0.0000
     30 H10         4.5844    0.9274   21.5921 H         1 <0>         0.0000
     31 H11         2.2572    0.7328   20.9223 H         1 <0>         0.0000
     32 H12         2.5972   -0.7112   19.9681 H         1 <0>         0.0000
     33 H13         8.7774   -2.2383   22.1732 H         1 <0>         0.0000
     34 H14         8.2557   -1.0153   23.3257 H         1 <0>         0.0000
     35 H15         6.8984   -1.6642   21.0696 H         1 <0>         0.0000
@<TRIPOS>BOND
     1    1    2 ar
     2    1    3 ar
     3    2    9 ar
     4    3   11 ar
     5    4    9 ar
     6    4   11 ar
     7    5    7 ar
     8    5   17 ar
     9    6   10 ar
    10    6   17 ar
    11    7    8 ar
    12    7   13 1
    13    8   10 ar
    14    8   14 1
    15    9   16 1
    16   10   18 1
    17   11   20 1
    18   12   16 1
    19   12   18 am
    20   12   19 2
    21   13   15 1
    22   14   15 1
    23    1   21 1
    24    2   22 1
    25    3   23 1
    26    4   24 1
    27    5   25 1
    28    6   26 1
    29   13   27 1
    30   13   28 1
    31   14   29 1
    32   14   30 1
    33   15   31 1
    34   15   32 1
    35   16   33 1
    36   16   34 1
    37   18   35 1
