@<TRIPOS>MOLECULE
MAT-POS-bb423b95-6_1
   35    37     0     0     0
SMALL
NO_CHARGES

@<TRIPOS>ATOM
      1 C1          5.7356    3.2708   21.0297 C.ar      1 <0>         0.0000
      2 C2          5.1354    3.8513   19.9164 C.ar      1 <0>         0.0000
      3 C3         11.9780    0.4600   23.9150 C.ar      1 <0>         0.0000
      4 C4          6.2437    1.9700   20.9599 C.ar      1 <0>         0.0000
      5 C5          5.0395    3.1346   18.7268 C.ar      1 <0>         0.0000
      6 C6         10.6560    0.0720   23.7350 C.ar      1 <0>         0.0000
      7 C7         12.9840   -0.1200   23.1530 C.ar      1 <0>         0.0000
      8 C8         11.3360   -1.5050   22.0650 C.ar      1 <0>         0.0000
      9 C9          6.1598    1.2258   19.7727 C.ar      1 <0>         0.0000
     10 C10         5.5480    1.8312   18.6556 C.ar      1 <0>         0.0000
     11 C11        10.3220   -0.8940   22.7910 C.ar      1 <0>         0.0000
     12 C12        12.6400   -1.1000   22.2390 C.ar      1 <0>         0.0000
     13 C13         6.5526   -0.7806   18.4684 C.2       1 <0>         0.0000
     14 C14         6.6808   -0.1525   19.6456 C.2       1 <0>         0.0000
     15 C15         5.4358    1.0817   17.3753 C.2       1 <0>         0.0000
     16 C16         8.3880   -0.3240   21.3070 C.2       1 <0>         0.0000
     17 C17         8.8810   -1.1900   22.4510 C.3       1 <0>         0.0000
     18 N1          5.9599   -0.1988   17.3804 N.am      1 <0>         0.0000
     19 N2          7.2820   -0.7860   20.6970 N.am      1 <0>         0.0000
     20 O1          4.9075    1.5896   16.3911 O.2       1 <0>         0.0000
     21 O2          8.9170    0.7530   21.0260 O.2       1 <0>         0.0000
     22 Cl1        13.8840   -1.8490   21.2740 Cl        1 <0>         0.0000
     23 H1          5.8095    3.8300   21.9581 H         1 <0>         0.0000
     24 H2          4.7417    4.8618   19.9759 H         1 <0>         0.0000
     25 H3         12.2249    1.2198   24.6546 H         1 <0>         0.0000
     26 H4          6.7023    1.5632   21.8568 H         1 <0>         0.0000
     27 H5          4.5665    3.6049   17.8693 H         1 <0>         0.0000
     28 H6          9.8763    0.5350   24.3454 H         1 <0>         0.0000
     29 H7         14.0077    0.1988   23.2842 H         1 <0>         0.0000
     30 H8         11.0892   -2.3009   21.3624 H         1 <0>         0.0000
     31 H9          6.9107   -1.7909   18.3029 H         1 <0>         0.0000
     32 H10         8.2535   -1.0146   23.3240 H         1 <0>         0.0000
     33 H11         8.7756   -2.2377   22.1724 H         1 <0>         0.0000
     34 H12         5.9064   -0.7485   16.5279 H         1 <0>         0.0000
     35 H13         6.8585   -1.6466   21.0208 H         1 <0>         0.0000
@<TRIPOS>BOND
     1    1    2 ar
     2    1    4 ar
     3    2    5 ar
     4    3    6 ar
     5    3    7 ar
     6    4    9 ar
     7    5   10 ar
     8    6   11 ar
     9    7   12 ar
    10    8   11 ar
    11    8   12 ar
    12    9   10 ar
    13    9   14 1
    14   10   15 1
    15   11   17 1
    16   12   22 1
    17   13   14 2
    18   13   18 1
    19   14   19 1
    20   15   18 am
    21   15   20 2
    22   16   17 1
    23   16   19 am
    24   16   21 2
    25    1   23 1
    26    2   24 1
    27    3   25 1
    28    4   26 1
    29    5   27 1
    30    6   28 1
    31    7   29 1
    32    8   30 1
    33   13   31 1
    34   17   32 1
    35   17   33 1
    36   18   34 1
    37   19   35 1
