@<TRIPOS>MOLECULE
MAT-POS-bfb445d4-2_1
   31    33     0     0     0
SMALL
NO_CHARGES

@<TRIPOS>ATOM
      1 C1          3.5133    2.3986   19.4106 C.ar      1 <0>         0.0000
      2 C2          3.9319    2.0971   20.7101 C.ar      1 <0>         0.0000
      3 C3         11.9780    0.4600   23.9150 C.ar      1 <0>         0.0000
      4 C4         10.6560    0.0720   23.7350 C.ar      1 <0>         0.0000
      5 C5          4.1324    1.8152   18.2973 C.ar      1 <0>         0.0000
      6 C6          4.9823    1.2034   20.9473 C.ar      1 <0>         0.0000
      7 C7         12.9840   -0.1200   23.1530 C.ar      1 <0>         0.0000
      8 C8         11.3360   -1.5050   22.0650 C.ar      1 <0>         0.0000
      9 C9         10.3220   -0.8940   22.7910 C.ar      1 <0>         0.0000
     10 C10         5.1866    0.9178   18.5214 C.ar      1 <0>         0.0000
     11 C11         5.5799    0.6380   19.8229 C.ar      1 <0>         0.0000
     12 C12        12.6400   -1.1000   22.2390 C.ar      1 <0>         0.0000
     13 C13         8.3880   -0.3240   21.3070 C.2       1 <0>         0.0000
     14 C14         8.8810   -1.1900   22.4510 C.3       1 <0>         0.0000
     15 N1          5.9664    0.2068   17.6479 N.2       1 <0>         0.0000
     16 N2          6.8333   -0.5075   18.3575 N.2       1 <0>         0.0000
     17 N3          6.6029   -0.2501   19.6557 N.pl3     1 <0>         0.0000
     18 N4          7.2820   -0.7860   20.6970 N.am      1 <0>         0.0000
     19 O1          8.9170    0.7530   21.0260 O.2       1 <0>         0.0000
     20 Cl1        13.8840   -1.8490   21.2740 Cl        1 <0>         0.0000
     21 H1          2.6939    3.0974   19.2604 H         1 <0>         0.0000
     22 H2          3.4319    2.5658   21.5544 H         1 <0>         0.0000
     23 H3         12.2249    1.2198   24.6546 H         1 <0>         0.0000
     24 H4          9.8763    0.5350   24.3454 H         1 <0>         0.0000
     25 H5          3.8009    2.0553   17.2924 H         1 <0>         0.0000
     26 H6          5.3064    0.9701   21.9550 H         1 <0>         0.0000
     27 H7         14.0077    0.1988   23.2842 H         1 <0>         0.0000
     28 H8         11.0892   -2.3009   21.3624 H         1 <0>         0.0000
     29 H9          8.2520   -1.0134   23.3227 H         1 <0>         0.0000
     30 H10         8.7794   -2.2394   22.1763 H         1 <0>         0.0000
     31 H11         6.8840   -1.7035   21.0887 H         1 <0>         0.0000
@<TRIPOS>BOND
     1    1    2 ar
     2    1    5 ar
     3    2    6 ar
     4    3    4 ar
     5    3    7 ar
     6    4    9 ar
     7    5   10 ar
     8    6   11 ar
     9    7   12 ar
    10    8    9 ar
    11    8   12 ar
    12    9   14 1
    13   10   11 ar
    14   10   15 1
    15   11   17 1
    16   12   20 1
    17   13   14 1
    18   13   18 am
    19   13   19 2
    20   15   16 2
    21   16   17 1
    22   17   18 1
    23    1   21 1
    24    2   22 1
    25    3   23 1
    26    4   24 1
    27    5   25 1
    28    6   26 1
    29    7   27 1
    30    8   28 1
    31   14   29 1
    32   14   30 1
    33   18   31 1
