@<TRIPOS>MOLECULE
MAT-POS-bb423b95-1_1
   33    35     0     0     0
SMALL
NO_CHARGES

@<TRIPOS>ATOM
      1 C1         11.9780    0.4600   23.9150 C.ar      1 <0>         0.0000
      2 C2         10.6560    0.0720   23.7350 C.ar      1 <0>         0.0000
      3 C3         12.9840   -0.1200   23.1530 C.ar      1 <0>         0.0000
      4 C4          6.1064    1.8667   20.8145 C.ar      1 <0>         0.0000
      5 C5         11.3360   -1.5050   22.0650 C.ar      1 <0>         0.0000
      6 C6          5.5131    3.1203   20.7768 C.ar      1 <0>         0.0000
      7 C7          4.7830    2.8210   18.6193 C.ar      1 <0>         0.0000
      8 C8          5.2694    0.7212   17.4205 C.ar      1 <0>         0.0000
      9 C9          6.4566   -0.9540   18.4506 C.ar      1 <0>         0.0000
     10 C10         6.0226    1.0561   19.6764 C.ar      1 <0>         0.0000
     11 C11         5.3433    1.5437   18.5470 C.ar      1 <0>         0.0000
     12 C12        10.3220   -0.8940   22.7910 C.ar      1 <0>         0.0000
     13 C13         6.5902   -0.2224   19.6218 C.ar      1 <0>         0.0000
     14 C14        12.6400   -1.1000   22.2390 C.ar      1 <0>         0.0000
     15 C15         8.3880   -0.3240   21.3070 C.2       1 <0>         0.0000
     16 C16         8.8810   -1.1900   22.4510 C.3       1 <0>         0.0000
     17 N1          4.8531    3.6186   19.7082 N.ar      1 <0>         0.0000
     18 N2          5.8106   -0.5152   17.3479 N.ar      1 <0>         0.0000
     19 N3          7.2820   -0.7860   20.6970 N.am      1 <0>         0.0000
     20 O1          8.9170    0.7530   21.0260 O.2       1 <0>         0.0000
     21 Cl1        13.8840   -1.8490   21.2740 Cl        1 <0>         0.0000
     22 H1         12.2249    1.2198   24.6546 H         1 <0>         0.0000
     23 H2          9.8763    0.5350   24.3454 H         1 <0>         0.0000
     24 H3         14.0077    0.1988   23.2842 H         1 <0>         0.0000
     25 H4          6.6165    1.5487   21.7183 H         1 <0>         0.0000
     26 H5         11.0892   -2.3009   21.3624 H         1 <0>         0.0000
     27 H6          5.5561    3.7784   21.6387 H         1 <0>         0.0000
     28 H7          4.2462    3.2509   17.7786 H         1 <0>         0.0000
     29 H8          4.7576    1.0441   16.5185 H         1 <0>         0.0000
     30 H9          6.8783   -1.9509   18.3577 H         1 <0>         0.0000
     31 H10         8.7774   -2.2383   22.1732 H         1 <0>         0.0000
     32 H11         8.2557   -1.0153   23.3257 H         1 <0>         0.0000
     33 H12         6.8982   -1.6620   21.0676 H         1 <0>         0.0000
@<TRIPOS>BOND
     1    1    2 ar
     2    1    3 ar
     3    2   12 ar
     4    3   14 ar
     5    4    6 ar
     6    4   10 ar
     7    5   12 ar
     8    5   14 ar
     9    6   17 ar
    10    7   11 ar
    11    7   17 ar
    12    8   11 ar
    13    8   18 ar
    14    9   13 ar
    15    9   18 ar
    16   10   11 ar
    17   10   13 ar
    18   12   16 1
    19   13   19 1
    20   14   21 1
    21   15   16 1
    22   15   19 am
    23   15   20 2
    24    1   22 1
    25    2   23 1
    26    3   24 1
    27    4   25 1
    28    5   26 1
    29    6   27 1
    30    7   28 1
    31    8   29 1
    32    9   30 1
    33   16   31 1
    34   16   32 1
    35   19   33 1
