@<TRIPOS>MOLECULE
MAT-POS-f7918075-8_1
   31    33     0     0     0
SMALL
NO_CHARGES

@<TRIPOS>ATOM
      1 C1         11.9780    0.4600   23.9150 C.ar      1 <0>         0.0000
      2 C2         10.6560    0.0720   23.7350 C.ar      1 <0>         0.0000
      3 C3         12.9840   -0.1200   23.1530 C.ar      1 <0>         0.0000
      4 C4         11.3360   -1.5050   22.0650 C.ar      1 <0>         0.0000
      5 C5          5.2930    0.8886   17.3914 C.ar      1 <0>         0.0000
      6 C6          7.1953   -0.0206   18.3929 C.ar      1 <0>         0.0000
      7 C7          3.2438    0.5875   20.3107 C.2       1 <0>         0.0000
      8 C8         10.3220   -0.8940   22.7910 C.ar      1 <0>         0.0000
      9 C9          5.2489    0.1584   19.7140 C.ar      1 <0>         0.0000
     10 C10         4.6311    0.7080   18.5949 C.ar      1 <0>         0.0000
     11 C11         6.5901   -0.2286   19.6268 C.ar      1 <0>         0.0000
     12 C12        12.6400   -1.1000   22.2390 C.ar      1 <0>         0.0000
     13 C13         8.3880   -0.3240   21.3070 C.2       1 <0>         0.0000
     14 C14         8.8810   -1.1900   22.4510 C.3       1 <0>         0.0000
     15 N1          6.5922    0.5150   17.3030 N.ar      1 <0>         0.0000
     16 N2          4.3707    0.0912   20.7710 N.2       1 <0>         0.0000
     17 N3          3.3509    0.9734   19.0031 N.pl3     1 <0>         0.0000
     18 N4          7.2820   -0.7860   20.6970 N.am      1 <0>         0.0000
     19 O1          8.9170    0.7530   21.0260 O.2       1 <0>         0.0000
     20 Cl1        13.8840   -1.8490   21.2740 Cl        1 <0>         0.0000
     21 H1         12.2249    1.2198   24.6546 H         1 <0>         0.0000
     22 H2          9.8763    0.5350   24.3454 H         1 <0>         0.0000
     23 H3         14.0077    0.1988   23.2842 H         1 <0>         0.0000
     24 H4         11.0892   -2.3009   21.3624 H         1 <0>         0.0000
     25 H5          4.8336    1.3133   16.5093 H         1 <0>         0.0000
     26 H6          8.2359   -0.2925   18.2346 H         1 <0>         0.0000
     27 H7          2.3228    0.6946   20.8659 H         1 <0>         0.0000
     28 H8          8.7774   -2.2383   22.1732 H         1 <0>         0.0000
     29 H9          8.2557   -1.0153   23.3257 H         1 <0>         0.0000
     30 H10         2.6168    1.3818   18.4400 H         1 <0>         0.0000
     31 H11         6.8984   -1.6645   21.0698 H         1 <0>         0.0000
@<TRIPOS>BOND
     1    1    2 ar
     2    1    3 ar
     3    2    8 ar
     4    3   12 ar
     5    4    8 ar
     6    4   12 ar
     7    5   10 ar
     8    5   15 ar
     9    6   11 ar
    10    6   15 ar
    11    7   16 2
    12    7   17 1
    13    8   14 1
    14    9   10 ar
    15    9   11 ar
    16    9   16 1
    17   10   17 1
    18   11   18 1
    19   12   20 1
    20   13   14 1
    21   13   18 am
    22   13   19 2
    23    1   21 1
    24    2   22 1
    25    3   23 1
    26    4   24 1
    27    5   25 1
    28    6   26 1
    29    7   27 1
    30   14   28 1
    31   14   29 1
    32   17   30 1
    33   18   31 1
