@<TRIPOS>MOLECULE
MAT-POS-bb423b95-2_1
   33    35     0     0     0
SMALL
NO_CHARGES

@<TRIPOS>ATOM
      1 C1         11.9780    0.4600   23.9150 C.ar      1 <0>         0.0000
      2 C2          2.6092    0.9280   19.9006 C.ar      1 <0>         0.0000
      3 C3          3.2923    1.1011   18.7061 C.ar      1 <0>         0.0000
      4 C4         10.6560    0.0720   23.7350 C.ar      1 <0>         0.0000
      5 C5         12.9840   -0.1200   23.1530 C.ar      1 <0>         0.0000
      6 C6         11.3360   -1.5050   22.0650 C.ar      1 <0>         0.0000
      7 C7          3.3018    0.3704   20.9577 C.ar      1 <0>         0.0000
      8 C8          5.3831    0.8587   17.4379 C.ar      1 <0>         0.0000
      9 C9          7.2480   -0.0367   18.4135 C.ar      1 <0>         0.0000
     10 C10         4.6359    0.7135   18.6093 C.ar      1 <0>         0.0000
     11 C11        10.3220   -0.8940   22.7910 C.ar      1 <0>         0.0000
     12 C12         5.2592    0.1543   19.7388 C.ar      1 <0>         0.0000
     13 C13         6.5902   -0.2225   19.6219 C.ar      1 <0>         0.0000
     14 C14        12.6400   -1.1000   22.2390 C.ar      1 <0>         0.0000
     15 C15         8.3880   -0.3240   21.3070 C.2       1 <0>         0.0000
     16 C16         8.8810   -1.1900   22.4510 C.3       1 <0>         0.0000
     17 N1          6.6769    0.4961   17.3148 N.ar      1 <0>         0.0000
     18 N2          4.5981   -0.0152   20.8998 N.ar      1 <0>         0.0000
     19 N3          7.2820   -0.7860   20.6970 N.am      1 <0>         0.0000
     20 O1          8.9170    0.7530   21.0260 O.2       1 <0>         0.0000
     21 Cl1        13.8840   -1.8490   21.2740 Cl        1 <0>         0.0000
     22 H1         12.2249    1.2198   24.6546 H         1 <0>         0.0000
     23 H2          1.5704    1.2199   20.0004 H         1 <0>         0.0000
     24 H3          2.7757    1.5363   17.8545 H         1 <0>         0.0000
     25 H4          9.8763    0.5350   24.3454 H         1 <0>         0.0000
     26 H5         14.0077    0.1988   23.2842 H         1 <0>         0.0000
     27 H6         11.0892   -2.3008   21.3624 H         1 <0>         0.0000
     28 H7          2.8179    0.2104   21.9160 H         1 <0>         0.0000
     29 H8          4.9469    1.2850   16.5388 H         1 <0>         0.0000
     30 H9          8.2891   -0.3207   18.2891 H         1 <0>         0.0000
     31 H10         8.7774   -2.2383   22.1732 H         1 <0>         0.0000
     32 H11         8.2557   -1.0153   23.3257 H         1 <0>         0.0000
     33 H12         6.8982   -1.6621   21.0676 H         1 <0>         0.0000
@<TRIPOS>BOND
     1    1    4 ar
     2    1    5 ar
     3    2    3 ar
     4    2    7 ar
     5    3   10 ar
     6    4   11 ar
     7    5   14 ar
     8    6   11 ar
     9    6   14 ar
    10    7   18 ar
    11    8   10 ar
    12    8   17 ar
    13    9   13 ar
    14    9   17 ar
    15   10   12 ar
    16   11   16 1
    17   12   13 ar
    18   12   18 ar
    19   13   19 1
    20   14   21 1
    21   15   16 1
    22   15   19 am
    23   15   20 2
    24    1   22 1
    25    2   23 1
    26    3   24 1
    27    4   25 1
    28    5   26 1
    29    6   27 1
    30    7   28 1
    31    8   29 1
    32    9   30 1
    33   16   31 1
    34   16   32 1
    35   19   33 1
