@<TRIPOS>MOLECULE
MAT-POS-f7918075-5_1
   33    35     0     0     0
SMALL
NO_CHARGES

@<TRIPOS>ATOM
      1 C1         11.9780    0.4600   23.9150 C.ar      1 <0>         0.0000
      2 C2         10.6560    0.0720   23.7350 C.ar      1 <0>         0.0000
      3 C3         12.9840   -0.1200   23.1530 C.ar      1 <0>         0.0000
      4 C4          4.7686    2.8343   18.6098 C.ar      1 <0>         0.0000
      5 C5         11.3360   -1.5050   22.0650 C.ar      1 <0>         0.0000
      6 C6          4.9054    3.5606   19.7824 C.ar      1 <0>         0.0000
      7 C7          5.2641    0.7338   17.4294 C.ar      1 <0>         0.0000
      8 C8          6.0946    1.8777   20.8024 C.ar      1 <0>         0.0000
      9 C9          6.4534   -0.9490   18.4495 C.ar      1 <0>         0.0000
     10 C10         5.3376    1.5563   18.5555 C.ar      1 <0>         0.0000
     11 C11         6.0212    1.0553   19.6763 C.ar      1 <0>         0.0000
     12 C12        10.3220   -0.8940   22.7910 C.ar      1 <0>         0.0000
     13 C13         6.5902   -0.2227   19.6221 C.ar      1 <0>         0.0000
     14 C14        12.6400   -1.1000   22.2390 C.ar      1 <0>         0.0000
     15 C15         8.3880   -0.3240   21.3070 C.2       1 <0>         0.0000
     16 C16         8.8810   -1.1900   22.4510 C.3       1 <0>         0.0000
     17 N1          5.5539    3.1153   20.8808 N.ar      1 <0>         0.0000
     18 N2          5.8048   -0.5038   17.3510 N.ar      1 <0>         0.0000
     19 N3          7.2820   -0.7860   20.6970 N.am      1 <0>         0.0000
     20 O1          8.9170    0.7530   21.0260 O.2       1 <0>         0.0000
     21 Cl1        13.8840   -1.8490   21.2740 Cl        1 <0>         0.0000
     22 H1         12.2249    1.2198   24.6546 H         1 <0>         0.0000
     23 H2          9.8763    0.5350   24.3454 H         1 <0>         0.0000
     24 H3         14.0077    0.1988   23.2842 H         1 <0>         0.0000
     25 H4          4.2324    3.2544   17.7650 H         1 <0>         0.0000
     26 H5         11.0892   -2.3009   21.3624 H         1 <0>         0.0000
     27 H6          4.4801    4.5552   19.8702 H         1 <0>         0.0000
     28 H7          4.7511    1.0572   16.5280 H         1 <0>         0.0000
     29 H8          6.6042    1.5667   21.7100 H         1 <0>         0.0000
     30 H9          6.8738   -1.9458   18.3507 H         1 <0>         0.0000
     31 H10         8.7774   -2.2383   22.1732 H         1 <0>         0.0000
     32 H11         8.2557   -1.0153   23.3257 H         1 <0>         0.0000
     33 H12         6.8982   -1.6622   21.0677 H         1 <0>         0.0000
@<TRIPOS>BOND
     1    1    2 ar
     2    1    3 ar
     3    2   12 ar
     4    3   14 ar
     5    4    6 ar
     6    4   10 ar
     7    5   12 ar
     8    5   14 ar
     9    6   17 ar
    10    7   10 ar
    11    7   18 ar
    12    8   11 ar
    13    8   17 ar
    14    9   13 ar
    15    9   18 ar
    16   10   11 ar
    17   11   13 ar
    18   12   16 1
    19   13   19 1
    20   14   21 1
    21   15   16 1
    22   15   19 am
    23   15   20 2
    24    1   22 1
    25    2   23 1
    26    3   24 1
    27    4   25 1
    28    5   26 1
    29    6   27 1
    30    7   28 1
    31    8   29 1
    32    9   30 1
    33   16   31 1
    34   16   32 1
    35   19   33 1
