@<TRIPOS>MOLECULE
MAT-POS-bb423b95-9_1
   34    36     0     0     0
SMALL
NO_CHARGES

@<TRIPOS>ATOM
      1 C1          5.5319    3.1318   20.8435 C.ar      1 <0>         0.0000
      2 C2         11.9780    0.4600   23.9150 C.ar      1 <0>         0.0000
      3 C3          6.1104    1.8616   20.8215 C.ar      1 <0>         0.0000
      4 C4         10.6560    0.0720   23.7350 C.ar      1 <0>         0.0000
      5 C5          4.8581    3.6129   19.7233 C.ar      1 <0>         0.0000
      6 C6         12.9840   -0.1200   23.1530 C.ar      1 <0>         0.0000
      7 C7         11.3360   -1.5050   22.0650 C.ar      1 <0>         0.0000
      8 C8          5.2700    0.7168   17.4216 C.ar      1 <0>         0.0000
      9 C9          6.4588   -0.9561   18.4526 C.ar      1 <0>         0.0000
     10 C10         6.0210    1.0556   19.6748 C.ar      1 <0>         0.0000
     11 C11         5.3381    1.5462   18.5428 C.ar      1 <0>         0.0000
     12 C12        10.3220   -0.8940   22.7910 C.ar      1 <0>         0.0000
     13 C13         6.5902   -0.2220   19.6215 C.ar      1 <0>         0.0000
     14 C14        12.6400   -1.1000   22.2390 C.ar      1 <0>         0.0000
     15 C15         4.7598    2.8260   18.5761 C.ar      1 <0>         0.0000
     16 C16         8.3880   -0.3240   21.3070 C.2       1 <0>         0.0000
     17 C17         8.8810   -1.1900   22.4510 C.3       1 <0>         0.0000
     18 N1          5.8130   -0.5195   17.3504 N.ar      1 <0>         0.0000
     19 N2          7.2820   -0.7860   20.6970 N.am      1 <0>         0.0000
     20 O1          8.9170    0.7530   21.0260 O.2       1 <0>         0.0000
     21 Cl1        13.8840   -1.8490   21.2740 Cl        1 <0>         0.0000
     22 Cl2         3.9042    3.5078   17.2320 Cl        1 <0>         0.0000
     23 H1          5.6080    3.7463   21.7360 H         1 <0>         0.0000
     24 H2         12.2249    1.2198   24.6546 H         1 <0>         0.0000
     25 H3          6.6281    1.5211   21.7152 H         1 <0>         0.0000
     26 H4          9.8763    0.5350   24.3454 H         1 <0>         0.0000
     27 H5          4.4155    4.6052   19.7624 H         1 <0>         0.0000
     28 H6         14.0077    0.1988   23.2842 H         1 <0>         0.0000
     29 H7         11.0892   -2.3009   21.3624 H         1 <0>         0.0000
     30 H8          4.7657    1.0109   16.5065 H         1 <0>         0.0000
     31 H9          6.8828   -1.9521   18.3615 H         1 <0>         0.0000
     32 H10         8.7774   -2.2383   22.1732 H         1 <0>         0.0000
     33 H11         8.2557   -1.0153   23.3257 H         1 <0>         0.0000
     34 H12         6.8981   -1.6619   21.0674 H         1 <0>         0.0000
@<TRIPOS>BOND
     1    1    3 ar
     2    1    5 ar
     3    2    4 ar
     4    2    6 ar
     5    3   10 ar
     6    4   12 ar
     7    5   15 ar
     8    6   14 ar
     9    7   12 ar
    10    7   14 ar
    11    8   11 ar
    12    8   18 ar
    13    9   13 ar
    14    9   18 ar
    15   10   11 ar
    16   10   13 ar
    17   11   15 ar
    18   12   17 1
    19   13   19 1
    20   14   21 1
    21   15   22 1
    22   16   17 1
    23   16   19 am
    24   16   20 2
    25    1   23 1
    26    2   24 1
    27    3   25 1
    28    4   26 1
    29    5   27 1
    30    6   28 1
    31    7   29 1
    32    8   30 1
    33    9   31 1
    34   17   32 1
    35   17   33 1
    36   19   34 1
