@<TRIPOS>MOLECULE
MAT-POS-bb423b95-5_1
   37    38     0     0     0
SMALL
NO_CHARGES

@<TRIPOS>ATOM
      1 C1         11.9780    0.4600   23.9150 C.ar      1 <0>         0.0000
      2 C2         10.6560    0.0720   23.7350 C.ar      1 <0>         0.0000
      3 C3         12.9840   -0.1200   23.1530 C.ar      1 <0>         0.0000
      4 C4          4.6234    0.7522   18.6081 C.ar      1 <0>         0.0000
      5 C5         11.3360   -1.5050   22.0650 C.ar      1 <0>         0.0000
      6 C6          5.3564    0.9068   17.4425 C.ar      1 <0>         0.0000
      7 C7          7.2357   -0.0071   18.3972 C.ar      1 <0>         0.0000
      8 C8         10.3220   -0.8940   22.7910 C.ar      1 <0>         0.0000
      9 C9          5.2597    0.1852   19.7067 C.ar      1 <0>         0.0000
     10 C10         6.5908   -0.2043   19.6076 C.ar      1 <0>         0.0000
     11 C11        12.6400   -1.1000   22.2390 C.ar      1 <0>         0.0000
     12 C12         8.3880   -0.3240   21.3070 C.2       1 <0>         0.0000
     13 C13         5.0910    0.8179   22.1408 C.3       1 <0>         0.0000
     14 C14         4.3627   -1.4726   21.3804 C.3       1 <0>         0.0000
     15 C15         8.8810   -1.1900   22.4510 C.3       1 <0>         0.0000
     16 C16         4.4934    0.0073   20.9763 C.3       1 <0>         0.0000
     17 N1          6.6508    0.5405   17.3083 N.ar      1 <0>         0.0000
     18 N2          7.2820   -0.7860   20.6970 N.am      1 <0>         0.0000
     19 O1          8.9170    0.7530   21.0260 O.2       1 <0>         0.0000
     20 Cl1        13.8840   -1.8490   21.2740 Cl        1 <0>         0.0000
     21 H1         12.2249    1.2198   24.6546 H         1 <0>         0.0000
     22 H2          9.8763    0.5350   24.3454 H         1 <0>         0.0000
     23 H3         14.0077    0.1988   23.2842 H         1 <0>         0.0000
     24 H4          3.5863    1.0668   18.6527 H         1 <0>         0.0000
     25 H5         11.0892   -2.3009   21.3624 H         1 <0>         0.0000
     26 H6          4.9063    1.3439   16.5573 H         1 <0>         0.0000
     27 H7          8.2746   -0.2909   18.2576 H         1 <0>         0.0000
     28 H8          6.1238    0.5199   22.3520 H         1 <0>         0.0000
     29 H9          4.5115    0.6824   23.0605 H         1 <0>         0.0000
     30 H10         5.0945    1.8872   21.9012 H         1 <0>         0.0000
     31 H11         5.3527   -1.9173   21.5316 H         1 <0>         0.0000
     32 H12         3.8488   -2.0537   20.6070 H         1 <0>         0.0000
     33 H13         3.7987   -1.5883   22.3124 H         1 <0>         0.0000
     34 H14         8.7709   -2.2387   22.1706 H         1 <0>         0.0000
     35 H15         8.2491   -1.0157   23.3232 H         1 <0>         0.0000
     36 H16         3.4604    0.3796   20.8438 H         1 <0>         0.0000
     37 H17         6.8973   -1.6552   21.0612 H         1 <0>         0.0000
@<TRIPOS>BOND
     1    1    2 ar
     2    1    3 ar
     3    2    8 ar
     4    3   11 ar
     5    4    6 ar
     6    4    9 ar
     7    5    8 ar
     8    5   11 ar
     9    6   17 ar
    10    7   10 ar
    11    7   17 ar
    12    8   15 1
    13    9   10 ar
    14    9   16 1
    15   10   18 1
    16   11   20 1
    17   12   15 1
    18   12   18 am
    19   12   19 2
    20   13   16 1
    21   14   16 1
    22    1   21 1
    23    2   22 1
    24    3   23 1
    25    4   24 1
    26    5   25 1
    27    6   26 1
    28    7   27 1
    29   13   28 1
    30   13   29 1
    31   13   30 1
    32   14   31 1
    33   14   32 1
    34   14   33 1
    35   15   34 1
    36   15   35 1
    37   16   36 1
    38   18   37 1
