@<TRIPOS>MOLECULE
MIC-UNK-66895286-1_1
   26    27     0     0     0
SMALL
NO_CHARGES

@<TRIPOS>ATOM
      1 C1         11.9780    0.4600   23.9150 C.ar      1 <0>         0.0000
      2 C2         10.6560    0.0720   23.7350 C.ar      1 <0>         0.0000
      3 C3         12.9840   -0.1200   23.1530 C.ar      1 <0>         0.0000
      4 C4         11.3360   -1.5050   22.0650 C.ar      1 <0>         0.0000
      5 C5          6.8841    0.9801   18.9055 C.2       1 <0>         0.0000
      6 C6          5.4610   -0.6936   18.9988 C.2       1 <0>         0.0000
      7 C7         10.3220   -0.8940   22.7910 C.ar      1 <0>         0.0000
      8 C8          6.5908   -0.2043   19.6076 C.2       1 <0>         0.0000
      9 C9         12.6400   -1.1000   22.2390 C.ar      1 <0>         0.0000
     10 C10         8.3880   -0.3240   21.3070 C.2       1 <0>         0.0000
     11 C11         8.8810   -1.1900   22.4510 C.3       1 <0>         0.0000
     12 N1          6.0111    1.2281   17.9254 N.2       1 <0>         0.0000
     13 N2          5.1582    0.1928   18.0074 N.pl3     1 <0>         0.0000
     14 N3          7.2820   -0.7860   20.6970 N.am      1 <0>         0.0000
     15 O1          8.9170    0.7530   21.0260 O.2       1 <0>         0.0000
     16 Cl1        13.8840   -1.8490   21.2740 Cl        1 <0>         0.0000
     17 H1         12.2249    1.2198   24.6546 H         1 <0>         0.0000
     18 H2          9.8763    0.5350   24.3454 H         1 <0>         0.0000
     19 H3         14.0077    0.1988   23.2842 H         1 <0>         0.0000
     20 H4         11.0892   -2.3009   21.3624 H         1 <0>         0.0000
     21 H5          7.6968    1.6748   19.0648 H         1 <0>         0.0000
     22 H6          4.8568   -1.5724   19.1753 H         1 <0>         0.0000
     23 H7          8.7709   -2.2387   22.1706 H         1 <0>         0.0000
     24 H8          8.2491   -1.0157   23.3232 H         1 <0>         0.0000
     25 H9          4.3874    0.1531   17.3524 H         1 <0>         0.0000
     26 H10         6.8973   -1.6552   21.0612 H         1 <0>         0.0000
@<TRIPOS>BOND
     1    1    2 ar
     2    1    3 ar
     3    2    7 ar
     4    3    9 ar
     5    4    7 ar
     6    4    9 ar
     7    5    8 1
     8    5   12 2
     9    6    8 2
    10    6   13 1
    11    7   11 1
    12    8   14 1
    13    9   16 1
    14   10   11 1
    15   10   14 am
    16   10   15 2
    17   12   13 1
    18    1   17 1
    19    2   18 1
    20    3   19 1
    21    4   20 1
    22    5   21 1
    23    6   22 1
    24   11   23 1
    25   11   24 1
    26   13   25 1
    27   14   26 1
