@<TRIPOS>MOLECULE
MIC-UNK-50cce87d-3_1
   37    39     0     0     0
SMALL
NO_CHARGES

@<TRIPOS>ATOM
      1 C1          2.5654    1.0080   19.6910 C.ar      1 <0>         0.0000
      2 C2         11.9780    0.4600   23.9150 C.ar      1 <0>         0.0000
      3 C3          3.3245    1.1473   18.5293 C.ar      1 <0>         0.0000
      4 C4          3.1376    0.4597   20.8365 C.ar      1 <0>         0.0000
      5 C5         10.6560    0.0720   23.7350 C.ar      1 <0>         0.0000
      6 C6         12.9840   -0.1200   23.1530 C.ar      1 <0>         0.0000
      7 C7         11.3360   -1.5050   22.0650 C.ar      1 <0>         0.0000
      8 C8          5.4730    0.8526   17.3722 C.ar      1 <0>         0.0000
      9 C9          7.2925   -0.0581   18.4375 C.ar      1 <0>         0.0000
     10 C10         4.6676    0.7364   18.5069 C.ar      1 <0>         0.0000
     11 C11         5.2506    0.1809   19.6646 C.ar      1 <0>         0.0000
     12 C12        10.3220   -0.8940   22.7910 C.ar      1 <0>         0.0000
     13 C13         4.4715    0.0482   20.8256 C.ar      1 <0>         0.0000
     14 C14         6.5902   -0.2223   19.6217 C.ar      1 <0>         0.0000
     15 C15        12.6400   -1.1000   22.2390 C.ar      1 <0>         0.0000
     16 C16         8.3880   -0.3240   21.3070 C.2       1 <0>         0.0000
     17 C17         4.9737   -0.5250   22.1151 C.3       1 <0>         0.0000
     18 C18         8.8810   -1.1900   22.4510 C.3       1 <0>         0.0000
     19 N1          6.7683    0.4694   17.3108 N.ar      1 <0>         0.0000
     20 N2          7.2820   -0.7860   20.6970 N.am      1 <0>         0.0000
     21 O1          8.9170    0.7530   21.0260 O.2       1 <0>         0.0000
     22 Cl1        13.8840   -1.8490   21.2740 Cl        1 <0>         0.0000
     23 H1          1.5274    1.3275   19.7020 H         1 <0>         0.0000
     24 H2         12.2249    1.2198   24.6546 H         1 <0>         0.0000
     25 H3          2.8624    1.5778   17.6440 H         1 <0>         0.0000
     26 H4          2.5322    0.3570   21.7338 H         1 <0>         0.0000
     27 H5          9.8763    0.5350   24.3454 H         1 <0>         0.0000
     28 H6         14.0077    0.1988   23.2842 H         1 <0>         0.0000
     29 H7         11.0892   -2.3009   21.3624 H         1 <0>         0.0000
     30 H8          5.0860    1.2716   16.4473 H         1 <0>         0.0000
     31 H9          8.3340   -0.3550   18.3510 H         1 <0>         0.0000
     32 H10         4.8077   -1.6068   22.1351 H         1 <0>         0.0000
     33 H11         6.0442   -0.3296   22.2403 H         1 <0>         0.0000
     34 H12         4.4607   -0.0729   22.9711 H         1 <0>         0.0000
     35 H13         8.7774   -2.2383   22.1732 H         1 <0>         0.0000
     36 H14         8.2557   -1.0153   23.3257 H         1 <0>         0.0000
     37 H15         6.8982   -1.6620   21.0675 H         1 <0>         0.0000
@<TRIPOS>BOND
     1    1    3 ar
     2    1    4 ar
     3    2    5 ar
     4    2    6 ar
     5    3   10 ar
     6    4   13 ar
     7    5   12 ar
     8    6   15 ar
     9    7   12 ar
    10    7   15 ar
    11    8   10 ar
    12    8   19 ar
    13    9   14 ar
    14    9   19 ar
    15   10   11 ar
    16   11   13 ar
    17   11   14 ar
    18   12   18 1
    19   13   17 1
    20   14   20 1
    21   15   22 1
    22   16   18 1
    23   16   20 am
    24   16   21 2
    25    1   23 1
    26    2   24 1
    27    3   25 1
    28    4   26 1
    29    5   27 1
    30    6   28 1
    31    7   29 1
    32    8   30 1
    33    9   31 1
    34   17   32 1
    35   17   33 1
    36   17   34 1
    37   18   35 1
    38   18   36 1
    39   20   37 1
