@<TRIPOS>MOLECULE
PET-UNK-8df914d1-2_1
   33    35     0     0     0
SMALL
NO_CHARGES

@<TRIPOS>ATOM
      1 C1         11.9780    0.4600   23.9150 C.ar      1 <0>         0.0000
      2 C2         10.6560    0.0720   23.7350 C.ar      1 <0>         0.0000
      3 C3         12.9840   -0.1200   23.1530 C.ar      1 <0>         0.0000
      4 C4         11.3360   -1.5050   22.0650 C.ar      1 <0>         0.0000
      5 C5          5.4902   -0.3867   18.9879 C.2       1 <0>         0.0000
      6 C6         10.3220   -0.8940   22.7910 C.ar      1 <0>         0.0000
      7 C7         12.6400   -1.1000   22.2390 C.ar      1 <0>         0.0000
      8 C8          6.2597    0.0083   20.0509 C.2       1 <0>         0.0000
      9 C9          4.8873    1.6707   19.5254 C.cat     1 <0>         0.0000
     10 C10         4.2653    3.0189   19.6318 C.2       1 <0>         0.0000
     11 C11         4.7465    3.8064   20.6099 C.2       1 <0>         0.0000
     12 C12         5.8110    3.3324   21.4899 C.2       1 <0>         0.0000
     13 C13         6.3554    2.1067   21.3702 C.2       1 <0>         0.0000
     14 C14         8.3880   -0.3240   21.3070 C.2       1 <0>         0.0000
     15 C15         8.8810   -1.1900   22.4510 C.3       1 <0>         0.0000
     16 N1          5.8680    1.2919   20.3696 N.pl3     1 <0>         0.0000
     17 N2          4.6513    0.6603   18.6846 N.pl3     1 <0>         0.0000
     18 N3          7.2820   -0.7860   20.6970 N.am      1 <0>         0.0000
     19 O1          8.9170    0.7530   21.0260 O.2       1 <0>         0.0000
     20 Cl1        13.8840   -1.8490   21.2740 Cl        1 <0>         0.0000
     21 H1         12.2249    1.2198   24.6546 H         1 <0>         0.0000
     22 H2          9.8763    0.5350   24.3454 H         1 <0>         0.0000
     23 H3         14.0077    0.1988   23.2842 H         1 <0>         0.0000
     24 H4         11.0892   -2.3009   21.3624 H         1 <0>         0.0000
     25 H5          5.4097   -1.2713   18.3872 H         1 <0>         0.0000
     26 H6          3.4782    3.3223   18.9548 H         1 <0>         0.0000
     27 H7          4.3587    4.8061   20.7683 H         1 <0>         0.0000
     28 H8          6.1577    4.0142   22.2592 H         1 <0>         0.0000
     29 H9          7.1448    1.7345   22.0098 H         1 <0>         0.0000
     30 H10         8.7774   -2.2383   22.1732 H         1 <0>         0.0000
     31 H11         8.2557   -1.0153   23.3257 H         1 <0>         0.0000
     32 H12         3.9612    0.6648   17.9385 H         1 <0>         0.0000
     33 H13         7.1527   -1.7824   20.6892 H         1 <0>         0.0000
@<TRIPOS>BOND
     1    1    2 ar
     2    1    3 ar
     3    2    6 ar
     4    3    7 ar
     5    4    6 ar
     6    4    7 ar
     7    5    8 2
     8    5   17 1
     9    6   15 1
    10    7   20 1
    11    8   16 1
    12    8   18 1
    13    9   10 1
    14    9   16 1
    15    9   17 2
    16   10   11 2
    17   11   12 1
    18   12   13 2
    19   13   16 1
    20   14   15 1
    21   14   18 am
    22   14   19 2
    23    1   21 1
    24    2   22 1
    25    3   23 1
    26    4   24 1
    27    5   25 1
    28   10   26 1
    29   11   27 1
    30   12   28 1
    31   13   29 1
    32   15   30 1
    33   15   31 1
    34   17   32 1
    35   18   33 1
