@<TRIPOS>MOLECULE
PET-UNK-e44ffd04-1_1
   31    33     0     0     0
SMALL
NO_CHARGES

@<TRIPOS>ATOM
      1 C1         11.9780    0.4600   23.9150 C.ar      1 <0>         0.0000
      2 C2         10.6560    0.0720   23.7350 C.ar      1 <0>         0.0000
      3 C3         12.9840   -0.1200   23.1530 C.ar      1 <0>         0.0000
      4 C4         11.3360   -1.5050   22.0650 C.ar      1 <0>         0.0000
      5 C5         10.3220   -0.8940   22.7910 C.ar      1 <0>         0.0000
      6 C6         12.6400   -1.1000   22.2390 C.ar      1 <0>         0.0000
      7 C7          4.9793    0.0930   18.1993 C.2       1 <0>         0.0000
      8 C8          6.5436   -0.2072   19.6961 C.2       1 <0>         0.0000
      9 C9          3.8109   -0.2708   17.4736 C.2       1 <0>         0.0000
     10 C10         3.2009   -1.4411   17.7472 C.2       1 <0>         0.0000
     11 C11         3.7091   -2.3452   18.7698 C.2       1 <0>         0.0000
     12 C12         4.8124   -2.0026   19.4556 C.2       1 <0>         0.0000
     13 C13         8.3880   -0.3240   21.3070 C.2       1 <0>         0.0000
     14 C14         8.8810   -1.1900   22.4510 C.3       1 <0>         0.0000
     15 N1          5.7766    1.1395   18.1642 N.2       1 <0>         0.0000
     16 N2          6.7643    0.9486   19.1102 N.2       1 <0>         0.0000
     17 N3          5.4313   -0.7937   19.1641 N.pl3     1 <0>         0.0000
     18 N4          7.2820   -0.7860   20.6970 N.am      1 <0>         0.0000
     19 O1          8.9170    0.7530   21.0260 O.2       1 <0>         0.0000
     20 Cl1        13.8840   -1.8490   21.2740 Cl        1 <0>         0.0000
     21 H1         12.2249    1.2198   24.6546 H         1 <0>         0.0000
     22 H2          9.8763    0.5350   24.3454 H         1 <0>         0.0000
     23 H3         14.0077    0.1988   23.2842 H         1 <0>         0.0000
     24 H4         11.0892   -2.3009   21.3624 H         1 <0>         0.0000
     25 H5          3.4255    0.3962   16.7109 H         1 <0>         0.0000
     26 H6          2.3092   -1.7416   17.2079 H         1 <0>         0.0000
     27 H7          3.1857   -3.2755   18.9532 H         1 <0>         0.0000
     28 H8          5.2395   -2.6316   20.2269 H         1 <0>         0.0000
     29 H9          8.7775   -2.2383   22.1732 H         1 <0>         0.0000
     30 H10         8.2557   -1.0153   23.3257 H         1 <0>         0.0000
     31 H11         6.9401   -1.7071   21.0292 H         1 <0>         0.0000
@<TRIPOS>BOND
     1    1    2 ar
     2    1    3 ar
     3    2    5 ar
     4    3    6 ar
     5    4    5 ar
     6    4    6 ar
     7    5   14 1
     8    6   20 1
     9    7    9 1
    10    7   15 2
    11    7   17 1
    12    8   16 2
    13    8   17 1
    14    8   18 1
    15    9   10 2
    16   10   11 1
    17   11   12 2
    18   12   17 1
    19   13   14 1
    20   13   18 am
    21   13   19 2
    22   15   16 1
    23    1   21 1
    24    2   22 1
    25    3   23 1
    26    4   24 1
    27    9   25 1
    28   10   26 1
    29   11   27 1
    30   12   28 1
    31   14   29 1
    32   14   30 1
    33   18   31 1
