@<TRIPOS>MOLECULE
PET-UNK-8df914d1-4_1
   29    30     0     0     0
SMALL
NO_CHARGES

@<TRIPOS>ATOM
      1 C1         11.9780    0.4600   23.9150 C.ar      1 <0>         0.0000
      2 C2         10.6560    0.0720   23.7350 C.ar      1 <0>         0.0000
      3 C3         12.9840   -0.1200   23.1530 C.ar      1 <0>         0.0000
      4 C4         11.3360   -1.5050   22.0650 C.ar      1 <0>         0.0000
      5 C5          6.3148   -0.6831   18.3486 C.2       1 <0>         0.0000
      6 C6          5.4562    1.2633   18.4179 C.2       1 <0>         0.0000
      7 C7         10.3220   -0.8940   22.7910 C.ar      1 <0>         0.0000
      8 C8         12.6400   -1.1000   22.2390 C.ar      1 <0>         0.0000
      9 C9          6.5908   -0.2043   19.6076 C.2       1 <0>         0.0000
     10 C10         8.3880   -0.3240   21.3070 C.2       1 <0>         0.0000
     11 C11         6.0450    1.9749   20.7408 C.3       1 <0>         0.0000
     12 C12         8.8810   -1.1900   22.4510 C.3       1 <0>         0.0000
     13 N1          5.6086    0.2353   17.6129 N.2       1 <0>         0.0000
     14 N2          6.0350    1.0437   19.6370 N.pl3     1 <0>         0.0000
     15 N3          7.2820   -0.7860   20.6970 N.am      1 <0>         0.0000
     16 O1          8.9170    0.7530   21.0260 O.2       1 <0>         0.0000
     17 Cl1        13.8840   -1.8490   21.2740 Cl        1 <0>         0.0000
     18 H1         12.2249    1.2198   24.6546 H         1 <0>         0.0000
     19 H2          9.8763    0.5350   24.3454 H         1 <0>         0.0000
     20 H3         14.0077    0.1988   23.2842 H         1 <0>         0.0000
     21 H4         11.0892   -2.3009   21.3624 H         1 <0>         0.0000
     22 H5          6.5869   -1.6421   17.9313 H         1 <0>         0.0000
     23 H6          4.9421    2.1837   18.1760 H         1 <0>         0.0000
     24 H7          5.1561    1.7871   21.3487 H         1 <0>         0.0000
     25 H8          6.9519    1.8270   21.3338 H         1 <0>         0.0000
     26 H9          6.0344    2.9969   20.3516 H         1 <0>         0.0000
     27 H10         8.7709   -2.2387   22.1706 H         1 <0>         0.0000
     28 H11         8.2491   -1.0157   23.3232 H         1 <0>         0.0000
     29 H12         6.8973   -1.6552   21.0612 H         1 <0>         0.0000
@<TRIPOS>BOND
     1    1    2 ar
     2    1    3 ar
     3    2    7 ar
     4    3    8 ar
     5    4    7 ar
     6    4    8 ar
     7    5    9 2
     8    5   13 1
     9    6   13 2
    10    6   14 1
    11    7   12 1
    12    8   17 1
    13    9   14 1
    14    9   15 1
    15   10   12 1
    16   10   15 am
    17   10   16 2
    18   11   14 1
    19    1   18 1
    20    2   19 1
    21    3   20 1
    22    4   21 1
    23    5   22 1
    24    6   23 1
    25   11   24 1
    26   11   25 1
    27   11   26 1
    28   12   27 1
    29   12   28 1
    30   15   29 1
