@<TRIPOS>MOLECULE
PET-UNK-bbe8d7ff-2_1
   35    36     0     0     0
SMALL
NO_CHARGES

@<TRIPOS>ATOM
      1 C1          6.2676   -2.0921   22.4576 C.1       1 <0>         0.0000
      2 C2         11.9780    0.4600   23.9150 C.ar      1 <0>         0.0000
      3 C3         10.6560    0.0720   23.7350 C.ar      1 <0>         0.0000
      4 C4         12.9840   -0.1200   23.1530 C.ar      1 <0>         0.0000
      5 C5          5.1343    1.7026   18.8987 C.ar      1 <0>         0.0000
      6 C6         11.3360   -1.5050   22.0650 C.ar      1 <0>         0.0000
      7 C7          5.5896    1.4646   17.6119 C.ar      1 <0>         0.0000
      8 C8          7.0577   -0.1484   18.3336 C.ar      1 <0>         0.0000
      9 C9         10.3220   -0.8940   22.7910 C.ar      1 <0>         0.0000
     10 C10         5.6907    0.9593   19.9338 C.ar      1 <0>         0.0000
     11 C11         6.6714    0.0141   19.6543 C.ar      1 <0>         0.0000
     12 C12        12.6400   -1.1000   22.2390 C.ar      1 <0>         0.0000
     13 C13         8.3880   -0.3240   21.3070 C.2       1 <0>         0.0000
     14 C14         5.2189    1.1956   21.3310 C.3       1 <0>         0.0000
     15 C15         6.6710   -2.0764   21.0526 C.3       1 <0>         0.0000
     16 C16         8.8810   -1.1900   22.4510 C.3       1 <0>         0.0000
     17 N1          5.9458   -2.1077   23.5723 N.1       1 <0>         0.0000
     18 N2          6.5404    0.5551   17.3015 N.ar      1 <0>         0.0000
     19 N3          7.2820   -0.7860   20.6970 N.am      1 <0>         0.0000
     20 O1          8.9170    0.7530   21.0260 O.2       1 <0>         0.0000
     21 Cl1        13.8840   -1.8490   21.2740 Cl        1 <0>         0.0000
     22 H1         12.2249    1.2198   24.6546 H         1 <0>         0.0000
     23 H2          9.8763    0.5350   24.3454 H         1 <0>         0.0000
     24 H3         14.0077    0.1988   23.2842 H         1 <0>         0.0000
     25 H4          4.3678    2.4475   19.0832 H         1 <0>         0.0000
     26 H5         11.0892   -2.3009   21.3624 H         1 <0>         0.0000
     27 H6          5.1878    2.0181   16.7695 H         1 <0>         0.0000
     28 H7          7.8183   -0.8707   18.0520 H         1 <0>         0.0000
     29 H8          4.3723    0.5389   21.5622 H         1 <0>         0.0000
     30 H9          6.0185    1.0039   22.0570 H         1 <0>         0.0000
     31 H10         4.9027    2.2367   21.4717 H         1 <0>         0.0000
     32 H11         7.4063   -2.8590   20.8449 H         1 <0>         0.0000
     33 H12         5.8110   -2.2277   20.3941 H         1 <0>         0.0000
     34 H13         8.7925   -2.2408   22.1686 H         1 <0>         0.0000
     35 H14         8.2587   -1.0122   23.3300 H         1 <0>         0.0000
@<TRIPOS>BOND
     1    1   15 1
     2    1   17 3
     3    2    3 ar
     4    2    4 ar
     5    3    9 ar
     6    4   12 ar
     7    5    7 ar
     8    5   10 ar
     9    6    9 ar
    10    6   12 ar
    11    7   18 ar
    12    8   11 ar
    13    8   18 ar
    14    9   16 1
    15   10   11 ar
    16   10   14 1
    17   11   19 1
    18   12   21 1
    19   13   16 1
    20   13   19 am
    21   13   20 2
    22   15   19 1
    23    2   22 1
    24    3   23 1
    25    4   24 1
    26    5   25 1
    27    6   26 1
    28    7   27 1
    29    8   28 1
    30   14   29 1
    31   14   30 1
    32   14   31 1
    33   15   32 1
    34   15   33 1
    35   16   34 1
    36   16   35 1
