@<TRIPOS>MOLECULE
RAL-THA-2d450e86-19_1
   34    36     0     0     0
SMALL
NO_CHARGES

@<TRIPOS>ATOM
      1 C1          4.8624    3.6148   19.7221 C.ar      1 <0>         0.0000
      2 C2          5.5348    3.1330   20.8427 C.ar      1 <0>         0.0000
      3 C3         11.9780    0.4600   23.9150 C.ar      1 <0>         0.0000
      4 C4          4.7639    2.8279   18.5748 C.ar      1 <0>         0.0000
      5 C5          6.1120    1.8621   20.8212 C.ar      1 <0>         0.0000
      6 C6         10.6560    0.0720   23.7350 C.ar      1 <0>         0.0000
      7 C7         12.9840   -0.1200   23.1530 C.ar      1 <0>         0.0000
      8 C8          5.2724    0.7181   17.4208 C.ar      1 <0>         0.0000
      9 C9          6.4587   -0.9561   18.4527 C.ar      1 <0>         0.0000
     10 C10         5.3407    1.5475   18.5420 C.ar      1 <0>         0.0000
     11 C11         6.0224    1.0562   19.6745 C.ar      1 <0>         0.0000
     12 C12        10.3220   -0.8940   22.7910 C.ar      1 <0>         0.0000
     13 C13         6.5902   -0.2221   19.6216 C.ar      1 <0>         0.0000
     14 C14        11.3360   -1.5050   22.0650 C.ar      1 <0>         0.0000
     15 C15        12.6400   -1.1000   22.2390 C.ar      1 <0>         0.0000
     16 C16         8.3880   -0.3240   21.3070 C.2       1 <0>         0.0000
     17 C17         8.8810   -1.1900   22.4510 C.3       1 <0>         0.0000
     18 N1          5.8141   -0.5188   17.3500 N.ar      1 <0>         0.0000
     19 N2          7.2820   -0.7860   20.6970 N.am      1 <0>         0.0000
     20 O1          8.9170    0.7530   21.0260 O.2       1 <0>         0.0000
     21 F1         11.0339   -2.4881   21.1996 F         1 <0>         0.0000
     22 Cl1        13.8840   -1.8490   21.2740 Cl        1 <0>         0.0000
     23 H1          4.4141    4.6038   19.7417 H         1 <0>         0.0000
     24 H2          5.6102    3.7474   21.7354 H         1 <0>         0.0000
     25 H3         12.2252    1.2198   24.6545 H         1 <0>         0.0000
     26 H4          4.2352    3.2195   17.7088 H         1 <0>         0.0000
     27 H5          6.6291    1.5215   21.7152 H         1 <0>         0.0000
     28 H6          9.8771    0.5358   24.3458 H         1 <0>         0.0000
     29 H7         14.0073    0.1994   23.2846 H         1 <0>         0.0000
     30 H8          4.7622    1.0349   16.5153 H         1 <0>         0.0000
     31 H9          6.8808   -1.9530   18.3618 H         1 <0>         0.0000
     32 H10         8.7775   -2.2383   22.1732 H         1 <0>         0.0000
     33 H11         8.2557   -1.0153   23.3257 H         1 <0>         0.0000
     34 H12         6.8981   -1.6619   21.0675 H         1 <0>         0.0000
@<TRIPOS>BOND
     1    1    2 ar
     2    1    4 ar
     3    2    5 ar
     4    3    6 ar
     5    3    7 ar
     6    4   10 ar
     7    5   11 ar
     8    6   12 ar
     9    7   15 ar
    10    8   10 ar
    11    8   18 ar
    12    9   13 ar
    13    9   18 ar
    14   10   11 ar
    15   11   13 ar
    16   12   14 ar
    17   12   17 1
    18   13   19 1
    19   14   15 ar
    20   14   21 1
    21   15   22 1
    22   16   17 1
    23   16   19 am
    24   16   20 2
    25    1   23 1
    26    2   24 1
    27    3   25 1
    28    4   26 1
    29    5   27 1
    30    6   28 1
    31    7   29 1
    32    8   30 1
    33    9   31 1
    34   17   32 1
    35   17   33 1
    36   19   34 1
