@<TRIPOS>MOLECULE
RUB-POS-1325a9ea-22_1
   33    35     0     0     0
SMALL
NO_CHARGES

@<TRIPOS>ATOM
      1 C1          3.0218    0.6399   20.6038 C.ar      1 <0>         0.0000
      2 C2          2.6872    1.2716   19.3891 C.ar      1 <0>         0.0000
      3 C3         11.9780    0.4600   23.9150 C.ar      1 <0>         0.0000
      4 C4          4.3061    0.1275   20.8235 C.ar      1 <0>         0.0000
      5 C5          3.6287    1.4048   18.3677 C.ar      1 <0>         0.0000
      6 C6         10.6560    0.0720   23.7350 C.ar      1 <0>         0.0000
      7 C7         12.9840   -0.1200   23.1530 C.ar      1 <0>         0.0000
      8 C8         11.3360   -1.5050   22.0650 C.ar      1 <0>         0.0000
      9 C9          5.2371    0.2598   19.8120 C.ar      1 <0>         0.0000
     10 C10         4.8846    0.8914   18.6107 C.ar      1 <0>         0.0000
     11 C11        10.3220   -0.8940   22.7910 C.ar      1 <0>         0.0000
     12 C12        12.6400   -1.1000   22.2390 C.ar      1 <0>         0.0000
     13 C13         6.6291   -0.1597   19.7353 C.cat     1 <0>         0.0000
     14 C14         6.0750    0.8751   17.7501 C.2       1 <0>         0.0000
     15 C15         8.3880   -0.3240   21.3070 C.2       1 <0>         0.0000
     16 C16         8.8810   -1.1900   22.4510 C.3       1 <0>         0.0000
     17 N1          7.0891    0.2089   18.5318 N.am      1 <0>         0.0000
     18 N2          7.2820   -0.7860   20.6970 N.am      1 <0>         0.0000
     19 O1          6.2409    1.3037   16.6293 O.2       1 <0>         0.0000
     20 O2          8.9170    0.7530   21.0260 O.2       1 <0>         0.0000
     21 Cl1        13.8840   -1.8490   21.2740 Cl        1 <0>         0.0000
     22 H1          2.2684    0.5509   21.3825 H         1 <0>         0.0000
     23 H2          1.6818    1.6600   19.2489 H         1 <0>         0.0000
     24 H3         12.2249    1.2198   24.6546 H         1 <0>         0.0000
     25 H4          4.5507   -0.3556   21.7627 H         1 <0>         0.0000
     26 H5          3.3770    1.8899   17.4325 H         1 <0>         0.0000
     27 H6          9.8763    0.5350   24.3454 H         1 <0>         0.0000
     28 H7         14.0077    0.1988   23.2842 H         1 <0>         0.0000
     29 H8         11.0892   -2.3009   21.3624 H         1 <0>         0.0000
     30 H9          8.2535   -1.0146   23.3240 H         1 <0>         0.0000
     31 H10         8.7756   -2.2377   22.1724 H         1 <0>         0.0000
     32 H11         8.0420    0.0244   18.2410 H         1 <0>         0.0000
     33 H12         6.9404   -1.7043   21.0286 H         1 <0>         0.0000
@<TRIPOS>BOND
     1    1    2 ar
     2    1    4 ar
     3    2    5 ar
     4    3    6 ar
     5    3    7 ar
     6    4    9 ar
     7    5   10 ar
     8    6   11 ar
     9    7   12 ar
    10    8   11 ar
    11    8   12 ar
    12    9   10 ar
    13    9   13 1
    14   10   14 1
    15   11   16 1
    16   12   21 1
    17   13   17 2
    18   13   18 1
    19   14   17 am
    20   14   19 2
    21   15   16 1
    22   15   18 am
    23   15   20 2
    24    1   22 1
    25    2   23 1
    26    3   24 1
    27    4   25 1
    28    5   26 1
    29    6   27 1
    30    7   28 1
    31    8   29 1
    32   16   30 1
    33   16   31 1
    34   17   32 1
    35   18   33 1
