@<TRIPOS>MOLECULE
RUB-POS-1325a9ea-4_1
   37    39     0     0     0
SMALL
NO_CHARGES

@<TRIPOS>ATOM
      1 C1         11.9780    0.4600   23.9150 C.ar      1 <0>         0.0000
      2 C2          3.8526    2.1354   18.7962 C.ar      1 <0>         0.0000
      3 C3         10.6560    0.0720   23.7350 C.ar      1 <0>         0.0000
      4 C4          3.4438    2.5381   20.0673 C.ar      1 <0>         0.0000
      5 C5         12.9840   -0.1200   23.1530 C.ar      1 <0>         0.0000
      6 C6          5.1216    1.1112   21.0627 C.ar      1 <0>         0.0000
      7 C7         11.3360   -1.5050   22.0650 C.ar      1 <0>         0.0000
      8 C8          5.3521    0.7769   17.4006 C.ar      1 <0>         0.0000
      9 C9          6.9508   -0.5834   18.3324 C.ar      1 <0>         0.0000
     10 C10         4.9027    1.2142   18.6481 C.ar      1 <0>         0.0000
     11 C11         5.5461    0.6946   19.7904 C.ar      1 <0>         0.0000
     12 C12         4.0768    2.0272   21.1980 C.ar      1 <0>         0.0000
     13 C13        10.3220   -0.8940   22.7910 C.ar      1 <0>         0.0000
     14 C14         6.5902   -0.2221   19.6216 C.ar      1 <0>         0.0000
     15 C15        12.6400   -1.1000   22.2390 C.ar      1 <0>         0.0000
     16 C16         8.3880   -0.3240   21.3070 C.2       1 <0>         0.0000
     17 C17         3.6374    2.4604   22.5562 C.3       1 <0>         0.0000
     18 C18         8.8810   -1.1900   22.4510 C.3       1 <0>         0.0000
     19 N1          6.3584   -0.1073   17.2167 N.ar      1 <0>         0.0000
     20 N2          7.2820   -0.7860   20.6970 N.am      1 <0>         0.0000
     21 O1          8.9170    0.7530   21.0260 O.2       1 <0>         0.0000
     22 Cl1        13.8840   -1.8490   21.2740 Cl        1 <0>         0.0000
     23 H1         12.2249    1.2198   24.6546 H         1 <0>         0.0000
     24 H2          3.3484    2.5444   17.9237 H         1 <0>         0.0000
     25 H3          9.8763    0.5350   24.3454 H         1 <0>         0.0000
     26 H4          2.6286    3.2506   20.1653 H         1 <0>         0.0000
     27 H5         14.0077    0.1988   23.2842 H         1 <0>         0.0000
     28 H6          5.5968    0.7290   21.9640 H         1 <0>         0.0000
     29 H7         11.0892   -2.3009   21.3624 H         1 <0>         0.0000
     30 H8          4.8995    1.1371   16.4806 H         1 <0>         0.0000
     31 H9          7.7544   -1.2909   18.1485 H         1 <0>         0.0000
     32 H10         2.8492    1.7968   22.9320 H         1 <0>         0.0000
     33 H11         4.4727    2.4469   23.2680 H         1 <0>         0.0000
     34 H12         3.2499    3.4874   22.5404 H         1 <0>         0.0000
     35 H13         8.7774   -2.2383   22.1732 H         1 <0>         0.0000
     36 H14         8.2557   -1.0153   23.3257 H         1 <0>         0.0000
     37 H15         6.8981   -1.6619   21.0675 H         1 <0>         0.0000
@<TRIPOS>BOND
     1    1    3 ar
     2    1    5 ar
     3    2    4 ar
     4    2   10 ar
     5    3   13 ar
     6    4   12 ar
     7    5   15 ar
     8    6   11 ar
     9    6   12 ar
    10    7   13 ar
    11    7   15 ar
    12    8   10 ar
    13    8   19 ar
    14    9   14 ar
    15    9   19 ar
    16   10   11 ar
    17   11   14 ar
    18   12   17 1
    19   13   18 1
    20   14   20 1
    21   15   22 1
    22   16   18 1
    23   16   20 am
    24   16   21 2
    25    1   23 1
    26    2   24 1
    27    3   25 1
    28    4   26 1
    29    5   27 1
    30    6   28 1
    31    7   29 1
    32    8   30 1
    33    9   31 1
    34   17   32 1
    35   17   33 1
    36   17   34 1
    37   18   35 1
    38   18   36 1
    39   20   37 1
