@<TRIPOS>MOLECULE
RUB-POS-1325a9ea-14_1
   34    36     0     0     0
SMALL
NO_CHARGES

@<TRIPOS>ATOM
      1 C1         11.9780    0.4600   23.9150 C.ar      1 <0>         0.0000
      2 C2         10.6560    0.0720   23.7350 C.ar      1 <0>         0.0000
      3 C3         12.9840   -0.1200   23.1530 C.ar      1 <0>         0.0000
      4 C4         11.3360   -1.5050   22.0650 C.ar      1 <0>         0.0000
      5 C5          5.2125    0.7895   17.3915 C.ar      1 <0>         0.0000
      6 C6          4.9106    2.8366   18.9782 C.2       1 <0>         0.0000
      7 C7          6.4232   -0.9144   18.4323 C.ar      1 <0>         0.0000
      8 C8          5.3267    1.5591   18.5493 C.ar      1 <0>         0.0000
      9 C9         10.3220   -0.8940   22.7910 C.ar      1 <0>         0.0000
     10 C10         6.0112    1.0341   19.6385 C.ar      1 <0>         0.0000
     11 C11         6.5901   -0.2287   19.6269 C.ar      1 <0>         0.0000
     12 C12        12.6400   -1.1000   22.2390 C.ar      1 <0>         0.0000
     13 C13         8.3880   -0.3240   21.3070 C.2       1 <0>         0.0000
     14 C14         6.5178    1.9519   21.9314 C.3       1 <0>         0.0000
     15 C15         8.8810   -1.1900   22.4510 C.3       1 <0>         0.0000
     16 N1          5.7652   -0.4478   17.3431 N.ar      1 <0>         0.0000
     17 N2          5.2901    3.1116   20.2284 N.2       1 <0>         0.0000
     18 N3          5.9539    2.0045   20.6018 N.pl3     1 <0>         0.0000
     19 N4          7.2820   -0.7860   20.6970 N.am      1 <0>         0.0000
     20 O1          8.9170    0.7530   21.0260 O.2       1 <0>         0.0000
     21 Cl1        13.8840   -1.8490   21.2740 Cl        1 <0>         0.0000
     22 H1         12.2249    1.2198   24.6546 H         1 <0>         0.0000
     23 H2          9.8763    0.5350   24.3454 H         1 <0>         0.0000
     24 H3         14.0077    0.1988   23.2842 H         1 <0>         0.0000
     25 H4         11.0892   -2.3009   21.3624 H         1 <0>         0.0000
     26 H5          4.6963    1.1231   16.4997 H         1 <0>         0.0000
     27 H6          4.3461    3.5785   18.4313 H         1 <0>         0.0000
     28 H7          6.8342   -1.9130   18.3058 H         1 <0>         0.0000
     29 H8          7.5352    2.3488   21.8822 H         1 <0>         0.0000
     30 H9          5.9058    2.5520   22.6105 H         1 <0>         0.0000
     31 H10         6.5271    0.9152   22.2792 H         1 <0>         0.0000
     32 H11         8.7774   -2.2383   22.1732 H         1 <0>         0.0000
     33 H12         8.2557   -1.0153   23.3257 H         1 <0>         0.0000
     34 H13         6.8984   -1.6645   21.0699 H         1 <0>         0.0000
@<TRIPOS>BOND
     1    1    2 ar
     2    1    3 ar
     3    2    9 ar
     4    3   12 ar
     5    4    9 ar
     6    4   12 ar
     7    5    8 ar
     8    5   16 ar
     9    6    8 1
    10    6   17 2
    11    7   11 ar
    12    7   16 ar
    13    8   10 ar
    14    9   15 1
    15   10   11 ar
    16   10   18 1
    17   11   19 1
    18   12   21 1
    19   13   15 1
    20   13   19 am
    21   13   20 2
    22   14   18 1
    23   17   18 1
    24    1   22 1
    25    2   23 1
    26    3   24 1
    27    4   25 1
    28    5   26 1
    29    6   27 1
    30    7   28 1
    31   14   29 1
    32   14   30 1
    33   14   31 1
    34   15   32 1
    35   15   33 1
    36   19   34 1
