@<TRIPOS>MOLECULE
RUB-POS-1325a9ea-5_1
   37    39     0     0     0
SMALL
NO_CHARGES

@<TRIPOS>ATOM
      1 C1          5.5361    3.1336   20.8422 C.ar      1 <0>         0.0000
      2 C2         11.9780    0.4600   23.9150 C.ar      1 <0>         0.0000
      3 C3          6.1126    1.8624   20.8209 C.ar      1 <0>         0.0000
      4 C4          4.8643    3.6157   19.7213 C.ar      1 <0>         0.0000
      5 C5         10.6560    0.0720   23.7350 C.ar      1 <0>         0.0000
      6 C6         12.9840   -0.1200   23.1530 C.ar      1 <0>         0.0000
      7 C7         11.3360   -1.5050   22.0650 C.ar      1 <0>         0.0000
      8 C8          5.2736    0.7187   17.4203 C.ar      1 <0>         0.0000
      9 C9          6.4587   -0.9561   18.4526 C.ar      1 <0>         0.0000
     10 C10         6.0230    1.0565   19.6742 C.ar      1 <0>         0.0000
     11 C11         5.3420    1.5481   18.5414 C.ar      1 <0>         0.0000
     12 C12        10.3220   -0.8940   22.7910 C.ar      1 <0>         0.0000
     13 C13         4.7658    2.8288   18.5741 C.ar      1 <0>         0.0000
     14 C14         6.5902   -0.2221   19.6216 C.ar      1 <0>         0.0000
     15 C15        12.6400   -1.1000   22.2390 C.ar      1 <0>         0.0000
     16 C16         8.3880   -0.3240   21.3070 C.2       1 <0>         0.0000
     17 C17         4.0326    3.3968   17.3998 C.3       1 <0>         0.0000
     18 C18         8.8810   -1.1900   22.4510 C.3       1 <0>         0.0000
     19 N1          5.8146   -0.5185   17.3498 N.ar      1 <0>         0.0000
     20 N2          7.2820   -0.7860   20.6970 N.am      1 <0>         0.0000
     21 O1          8.9170    0.7530   21.0260 O.2       1 <0>         0.0000
     22 Cl1        13.8840   -1.8490   21.2740 Cl        1 <0>         0.0000
     23 H1          5.6116    3.7478   21.7348 H         1 <0>         0.0000
     24 H2         12.2249    1.2198   24.6546 H         1 <0>         0.0000
     25 H3          6.6291    1.5211   21.7152 H         1 <0>         0.0000
     26 H4          4.4197    4.6070   19.7517 H         1 <0>         0.0000
     27 H5          9.8763    0.5350   24.3454 H         1 <0>         0.0000
     28 H6         14.0077    0.1988   23.2842 H         1 <0>         0.0000
     29 H7         11.0892   -2.3009   21.3624 H         1 <0>         0.0000
     30 H8          4.7671    1.0234   16.5091 H         1 <0>         0.0000
     31 H9          6.8799   -1.9532   18.3619 H         1 <0>         0.0000
     32 H10         4.7253    3.9439   16.7515 H         1 <0>         0.0000
     33 H11         3.5539    2.6041   16.8138 H         1 <0>         0.0000
     34 H12         3.2397    4.0805   17.7242 H         1 <0>         0.0000
     35 H13         8.7774   -2.2383   22.1732 H         1 <0>         0.0000
     36 H14         8.2557   -1.0153   23.3257 H         1 <0>         0.0000
     37 H15         6.8981   -1.6619   21.0675 H         1 <0>         0.0000
@<TRIPOS>BOND
     1    1    3 ar
     2    1    4 ar
     3    2    5 ar
     4    2    6 ar
     5    3   10 ar
     6    4   13 ar
     7    5   12 ar
     8    6   15 ar
     9    7   12 ar
    10    7   15 ar
    11    8   11 ar
    12    8   19 ar
    13    9   14 ar
    14    9   19 ar
    15   10   11 ar
    16   10   14 ar
    17   11   13 ar
    18   12   18 1
    19   13   17 1
    20   14   20 1
    21   15   22 1
    22   16   18 1
    23   16   20 am
    24   16   21 2
    25    1   23 1
    26    2   24 1
    27    3   25 1
    28    4   26 1
    29    5   27 1
    30    6   28 1
    31    7   29 1
    32    8   30 1
    33    9   31 1
    34   17   32 1
    35   17   33 1
    36   17   34 1
    37   18   35 1
    38   18   36 1
    39   20   37 1
