@<TRIPOS>MOLECULE
WIL-UNI-2e73223c-4_1
   44    45     0     0     0
SMALL
NO_CHARGES

@<TRIPOS>ATOM
      1 C1         11.9780    0.4600   23.9150 C.ar      1 <0>         0.0000
      2 C2         10.6560    0.0720   23.7350 C.ar      1 <0>         0.0000
      3 C3         12.9840   -0.1200   23.1530 C.ar      1 <0>         0.0000
      4 C4          4.9968    4.4505   23.3562 C.ar      1 <0>         0.0000
      5 C5         11.3360   -1.5050   22.0650 C.ar      1 <0>         0.0000
      6 C6          3.6501    4.3764   23.0390 C.ar      1 <0>         0.0000
      7 C7          4.0003    2.6480   21.5665 C.ar      1 <0>         0.0000
      8 C8         10.3220   -0.8940   22.7910 C.ar      1 <0>         0.0000
      9 C9          5.8632    3.5628   22.7280 C.ar      1 <0>         0.0000
     10 C10         5.3635    2.6412   21.8146 C.ar      1 <0>         0.0000
     11 C11        12.6400   -1.1000   22.2390 C.ar      1 <0>         0.0000
     12 C12         8.3880   -0.3240   21.3070 C.2       1 <0>         0.0000
     13 C13         7.3210    3.6132   23.0436 C.3       1 <0>         0.0000
     14 C14         8.7800   -2.6901   22.0469 C.3       1 <0>         0.0000
     15 C15         7.8867   -1.0026   23.6354 C.3       1 <0>         0.0000
     16 C16         6.6076   -0.0566   19.6485 C.3       1 <0>         0.0000
     17 C17         5.5573    0.8548   20.2567 C.3       1 <0>         0.0000
     18 C18         8.8810   -1.1900   22.4510 C.3       1 <0>         0.0000
     19 N1          3.1276    3.4949   22.1572 N.ar      1 <0>         0.0000
     20 N2          7.2820   -0.7860   20.6970 N.am      1 <0>         0.0000
     21 O1          8.9170    0.7530   21.0260 O.2       1 <0>         0.0000
     22 O2          6.1799    1.7489   21.1705 O.3       1 <0>         0.0000
     23 Cl1        13.8840   -1.8490   21.2740 Cl        1 <0>         0.0000
     24 H1         12.2249    1.2198   24.6546 H         1 <0>         0.0000
     25 H2          9.8763    0.5350   24.3454 H         1 <0>         0.0000
     26 H3         14.0077    0.1988   23.2842 H         1 <0>         0.0000
     27 H4          5.3552    5.1811   24.0733 H         1 <0>         0.0000
     28 H5         11.0892   -2.3009   21.3624 H         1 <0>         0.0000
     29 H6          2.9329    5.0476   23.5000 H         1 <0>         0.0000
     30 H7          3.5546    1.9507   20.8641 H         1 <0>         0.0000
     31 H8          7.5516    2.9493   23.8853 H         1 <0>         0.0000
     32 H9          7.9253    3.3054   22.1809 H         1 <0>         0.0000
     33 H10         7.6358    4.6313   23.3060 H         1 <0>         0.0000
     34 H11         7.7552   -2.9851   21.7926 H         1 <0>         0.0000
     35 H12         9.1081   -3.3488   22.8600 H         1 <0>         0.0000
     36 H13         9.4084   -2.8993   21.1730 H         1 <0>         0.0000
     37 H14         6.8607   -1.2419   23.3301 H         1 <0>         0.0000
     38 H15         7.8777    0.0311   23.9992 H         1 <0>         0.0000
     39 H16         8.1338   -1.6505   24.4845 H         1 <0>         0.0000
     40 H17         6.1559   -0.7805   18.9629 H         1 <0>         0.0000
     41 H18         7.3548    0.5316   19.1071 H         1 <0>         0.0000
     42 H19         4.8228    0.2624   20.8111 H         1 <0>         0.0000
     43 H20         5.0389    1.4395   19.4899 H         1 <0>         0.0000
     44 H21         6.9059   -1.6839   20.9852 H         1 <0>         0.0000
@<TRIPOS>BOND
     1    1    2 ar
     2    1    3 ar
     3    2    8 ar
     4    3   11 ar
     5    4    6 ar
     6    4    9 ar
     7    5    8 ar
     8    5   11 ar
     9    6   19 ar
    10    7   10 ar
    11    7   19 ar
    12    8   18 1
    13    9   10 ar
    14    9   13 1
    15   10   22 1
    16   11   23 1
    17   12   18 1
    18   12   20 am
    19   12   21 2
    20   14   18 1
    21   15   18 1
    22   16   17 1
    23   16   20 1
    24   17   22 1
    25    1   24 1
    26    2   25 1
    27    3   26 1
    28    4   27 1
    29    5   28 1
    30    6   29 1
    31    7   30 1
    32   13   31 1
    33   13   32 1
    34   13   33 1
    35   14   34 1
    36   14   35 1
    37   14   36 1
    38   15   37 1
    39   15   38 1
    40   15   39 1
    41   16   40 1
    42   16   41 1
    43   17   42 1
    44   17   43 1
    45   20   44 1
