@<TRIPOS>MOLECULE
EDJ-MED-c8e7a002-11_1
   32    34     1     0     0
SMALL
NO_CHARGES


@<TRIPOS>ATOM
      1 C1            2.9004    0.5438   20.4783 C.ar     1 <0>        0.0000
      2 C2            2.6151    1.0944   19.2274 C.ar     1 <0>        0.0000
      3 C3           11.9780    0.4600   23.9150 C.ar     1 <0>        0.0000
      4 C4            4.1820    0.0659   20.7797 C.ar     1 <0>        0.0000
      5 C5           10.6560    0.0720   23.7350 C.ar     1 <0>        0.0000
      6 C6            3.5972    1.1870   18.2358 C.ar     1 <0>        0.0000
      7 C7           12.9840   -0.1200   23.1530 C.ar     1 <0>        0.0000
      8 C8           11.3360   -1.5050   22.0650 C.ar     1 <0>        0.0000
      9 C9            5.1793    0.1521   19.7940 C.ar     1 <0>        0.0000
     10 C10          10.3220   -0.8940   22.7910 C.ar     1 <0>        0.0000
     11 C11           4.8681    0.7050   18.5567 C.ar     1 <0>        0.0000
     12 C12          12.6400   -1.1000   22.2390 C.ar     1 <0>        0.0000
     13 C13           6.5430   -0.1965   19.6884 C.2      1 <0>        0.0000
     14 C14           8.3880   -0.3240   21.3070 C.2      1 <0>        0.0000
     15 C15           8.8810   -1.1900   22.4510 C.3      1 <0>        0.0000
     16 N1            7.0637    0.1030   18.4963 N.2      1 <0>        0.0000
     17 N2            6.0289    0.6462   17.8337 N.pl3    1 <0>        0.0000
     18 N3            7.2820   -0.7860   20.6970 N.am     1 <0>        0.0000
     19 O1            8.9170    0.7530   21.0260 O.2      1 <0>        0.0000
     20 Cl1          13.8840   -1.8490   21.2740 Cl       1 <0>        0.0000
     21 H1            2.1178    0.4868   21.2304 H        1 <0>        0.0000
     22 H2            1.6122    1.4593   19.0196 H        1 <0>        0.0000
     23 H3           12.2249    1.2198   24.6546 H        1 <0>        0.0000
     24 H4            4.3902   -0.3595   21.7568 H        1 <0>        0.0000
     25 H5            9.8763    0.5350   24.3454 H        1 <0>        0.0000
     26 H6            3.3780    1.6149   17.2640 H        1 <0>        0.0000
     27 H7           14.0077    0.1988   23.2842 H        1 <0>        0.0000
     28 H8           11.0892   -2.3009   21.3624 H        1 <0>        0.0000
     29 H9            8.7774   -2.2383   22.1732 H        1 <0>        0.0000
     30 H10           8.2557   -1.0153   23.3257 H        1 <0>        0.0000
     31 H11           6.1820    0.9597   16.8833 H        1 <0>        0.0000
     32 H12           6.9394   -1.7027   21.0257 H        1 <0>        0.0000
@<TRIPOS>BOND
     1    1    2 ar
     2    1    4 ar
     3    2    6 ar
     4    3    5 ar
     5    3    7 ar
     6    4    9 ar
     7    5   10 ar
     8    6   11 ar
     9    7   12 ar
    10    8   10 ar
    11    8   12 ar
    12    9   11 ar
    13    9   13 1
    14   10   15 1
    15   11   17 1
    16   12   20 1
    17   13   16 2
    18   13   18 1
    19   14   15 1
    20   14   18 am
    21   14   19 2
    22   16   17 1
    23    1   21 1
    24    2   22 1
    25    3   23 1
    26    4   24 1
    27    5   25 1
    28    6   26 1
    29    7   27 1
    30    8   28 1
    31   15   29 1
    32   15   30 1
    33   17   31 1
    34   18   32 1
@<TRIPOS>SUBSTRUCTURE
     1 <0>         1 
