@<TRIPOS>MOLECULE
EDJ-MED-c8e7a002-2_1
   36    38     1     0     0
SMALL
NO_CHARGES


@<TRIPOS>ATOM
      1 C1           11.9780    0.4600   23.9150 C.ar     1 <0>        0.0000
      2 C2           10.6560    0.0720   23.7350 C.ar     1 <0>        0.0000
      3 C3            4.5461    2.3704   18.2313 C.ar     1 <0>        0.0000
      4 C4            4.4256    3.3533   19.2191 C.ar     1 <0>        0.0000
      5 C5           12.9840   -0.1200   23.1530 C.ar     1 <0>        0.0000
      6 C6            5.7757    2.0549   20.7728 C.ar     1 <0>        0.0000
      7 C7           11.3360   -1.5050   22.0650 C.ar     1 <0>        0.0000
      8 C8            5.9060    1.0587   19.7908 C.ar     1 <0>        0.0000
      9 C9           10.3220   -0.8940   22.7910 C.ar     1 <0>        0.0000
     10 C10           5.2948    1.2366   18.5546 C.ar     1 <0>        0.0000
     11 C11           5.0291    3.2002   20.4688 C.ar     1 <0>        0.0000
     12 C12          12.6400   -1.1000   22.2390 C.ar     1 <0>        0.0000
     13 C13           6.5430   -0.1967   19.6886 C.2      1 <0>        0.0000
     14 C14           8.3880   -0.3240   21.3070 C.2      1 <0>        0.0000
     15 C15           5.5285    3.9642   22.6649 C.3      1 <0>        0.0000
     16 C16           8.8810   -1.1900   22.4510 C.3      1 <0>        0.0000
     17 N1            6.3609   -0.7750   18.4993 N.2      1 <0>        0.0000
     18 N2            5.6032    0.1137   17.8352 N.pl3    1 <0>        0.0000
     19 N3            7.2820   -0.7860   20.6970 N.am     1 <0>        0.0000
     20 O1            8.9170    0.7530   21.0260 O.2      1 <0>        0.0000
     21 O2            4.8893    4.1781   21.4086 O.3      1 <0>        0.0000
     22 Cl1          13.8840   -1.8490   21.2740 Cl       1 <0>        0.0000
     23 H1           12.2249    1.2198   24.6546 H        1 <0>        0.0000
     24 H2            9.8763    0.5350   24.3454 H        1 <0>        0.0000
     25 H3            4.0784    2.4878   17.2601 H        1 <0>        0.0000
     26 H4            3.8499    4.2506   19.0033 H        1 <0>        0.0000
     27 H5           14.0077    0.1988   23.2842 H        1 <0>        0.0000
     28 H6            6.2406    1.9429   21.7480 H        1 <0>        0.0000
     29 H7           11.0892   -2.3009   21.3624 H        1 <0>        0.0000
     30 H8            5.3385    4.8171   23.3211 H        1 <0>        0.0000
     31 H9            6.6036    3.8413   22.5114 H        1 <0>        0.0000
     32 H10           5.1216    3.0587   23.1211 H        1 <0>        0.0000
     33 H11           8.7774   -2.2383   22.1732 H        1 <0>        0.0000
     34 H12           8.2557   -1.0153   23.3257 H        1 <0>        0.0000
     35 H13           5.3291   -0.1068   16.8860 H        1 <0>        0.0000
     36 H14           6.9394   -1.7028   21.0257 H        1 <0>        0.0000
@<TRIPOS>BOND
     1    1    2 ar
     2    1    5 ar
     3    2    9 ar
     4    3    4 ar
     5    3   10 ar
     6    4   11 ar
     7    5   12 ar
     8    6    8 ar
     9    6   11 ar
    10    7    9 ar
    11    7   12 ar
    12    8   10 ar
    13    8   13 1
    14    9   16 1
    15   10   18 1
    16   11   21 1
    17   12   22 1
    18   13   17 2
    19   13   19 1
    20   14   16 1
    21   14   19 am
    22   14   20 2
    23   15   21 1
    24   17   18 1
    25    1   23 1
    26    2   24 1
    27    3   25 1
    28    4   26 1
    29    5   27 1
    30    6   28 1
    31    7   29 1
    32   15   30 1
    33   15   31 1
    34   15   32 1
    35   16   33 1
    36   16   34 1
    37   18   35 1
    38   19   36 1
@<TRIPOS>SUBSTRUCTURE
     1 <0>         1 
