@<TRIPOS>MOLECULE
EDJ-MED-50fe53e8-1_1
   33    35     1     0     0
SMALL
NO_CHARGES


@<TRIPOS>ATOM
      1 C1            4.7514    3.5798   20.1895 C.ar     1 <0>        0.0000
      2 C2            5.4761    3.0243   21.2423 C.ar     1 <0>        0.0000
      3 C3           11.9780    0.4600   23.9150 C.ar     1 <0>        0.0000
      4 C4            4.6287    2.8888   18.9835 C.ar     1 <0>        0.0000
      5 C5            6.0807    1.7756   21.0932 C.ar     1 <0>        0.0000
      6 C6           10.6560    0.0720   23.7350 C.ar     1 <0>        0.0000
      7 C7           12.9840   -0.1200   23.1530 C.ar     1 <0>        0.0000
      8 C8           11.3360   -1.5050   22.0650 C.ar     1 <0>        0.0000
      9 C9            5.1474    0.8942   17.6471 C.ar     1 <0>        0.0000
     10 C10           5.2336    1.6309   18.8232 C.ar     1 <0>        0.0000
     11 C11           5.9631    1.0717   19.8829 C.ar     1 <0>        0.0000
     12 C12          10.3220   -0.8940   22.7910 C.ar     1 <0>        0.0000
     13 C13          12.6400   -1.1000   22.2390 C.ar     1 <0>        0.0000
     14 C14           6.5421   -0.1750   19.6733 C.ar     1 <0>        0.0000
     15 C15           8.3880   -0.3240   21.3070 C.2      1 <0>        0.0000
     16 C16           8.8810   -1.1900   22.4510 C.3      1 <0>        0.0000
     17 N1            5.7263   -0.3154   17.4859 N.ar     1 <0>        0.0000
     18 N2            6.4331   -0.8572   18.5127 N.ar     1 <0>        0.0000
     19 N3            7.2820   -0.7860   20.6970 N.am     1 <0>        0.0000
     20 O1            8.9170    0.7530   21.0260 O.2      1 <0>        0.0000
     21 Cl1          13.8840   -1.8490   21.2740 Cl       1 <0>        0.0000
     22 H1            4.2819    4.5520   20.3082 H        1 <0>        0.0000
     23 H2            5.5689    3.5630   22.1806 H        1 <0>        0.0000
     24 H3           12.2249    1.2198   24.6546 H        1 <0>        0.0000
     25 H4            4.0595    3.3371   18.1724 H        1 <0>        0.0000
     26 H5            6.6381    1.3735   21.9358 H        1 <0>        0.0000
     27 H6            9.8763    0.5350   24.3454 H        1 <0>        0.0000
     28 H7           14.0077    0.1988   23.2842 H        1 <0>        0.0000
     29 H8           11.0892   -2.3009   21.3624 H        1 <0>        0.0000
     30 H9            4.6024    1.2565   16.7814 H        1 <0>        0.0000
     31 H10           8.7774   -2.2383   22.1732 H        1 <0>        0.0000
     32 H11           8.2557   -1.0153   23.3257 H        1 <0>        0.0000
     33 H12           6.9380   -1.6942   21.0188 H        1 <0>        0.0000
@<TRIPOS>BOND
     1    1    2 ar
     2    1    4 ar
     3    2    5 ar
     4    3    6 ar
     5    3    7 ar
     6    4   10 ar
     7    5   11 ar
     8    6   12 ar
     9    7   13 ar
    10    8   12 ar
    11    8   13 ar
    12    9   10 ar
    13    9   17 ar
    14   10   11 ar
    15   11   14 ar
    16   12   16 1
    17   13   21 1
    18   14   18 ar
    19   14   19 1
    20   15   16 1
    21   15   19 am
    22   15   20 2
    23   17   18 ar
    24    1   22 1
    25    2   23 1
    26    3   24 1
    27    4   25 1
    28    5   26 1
    29    6   27 1
    30    7   28 1
    31    8   29 1
    32    9   30 1
    33   16   31 1
    34   16   32 1
    35   19   33 1
@<TRIPOS>SUBSTRUCTURE
     1 <0>         1 
