@<TRIPOS>MOLECULE
EDJ-MED-50fe53e8-3_1
   32    34     1     0     0
SMALL
NO_CHARGES


@<TRIPOS>ATOM
      1 C1           11.9780    0.4600   23.9150 C.ar     1 <0>        0.0000
      2 C2           10.6560    0.0720   23.7350 C.ar     1 <0>        0.0000
      3 C3           12.9840   -0.1200   23.1530 C.ar     1 <0>        0.0000
      4 C4           11.3360   -1.5050   22.0650 C.ar     1 <0>        0.0000
      5 C5            6.0896    0.6374   17.7816 C.2      1 <0>        0.0000
      6 C6           10.3220   -0.8940   22.7910 C.ar     1 <0>        0.0000
      7 C7           12.6400   -1.1000   22.2390 C.ar     1 <0>        0.0000
      8 C8            5.2161    0.1490   19.7529 C.2      1 <0>        0.0000
      9 C9            6.5434   -0.2036   19.6935 C.2      1 <0>        0.0000
     10 C10           4.1679    0.0882   20.7099 C.2      1 <0>        0.0000
     11 C11           2.9482    0.5569   20.3787 C.2      1 <0>        0.0000
     12 C12           2.6803    1.1234   19.0640 C.2      1 <0>        0.0000
     13 C13           3.6729    1.1797   18.1600 C.2      1 <0>        0.0000
     14 C14           8.3880   -0.3240   21.3070 C.2      1 <0>        0.0000
     15 C15           8.8810   -1.1900   22.4510 C.3      1 <0>        0.0000
     16 N1            7.0783    0.1029   18.4661 N.2      1 <0>        0.0000
     17 N2            4.9289    0.6937   18.5104 N.pl3    1 <0>        0.0000
     18 N3            7.2820   -0.7860   20.6970 N.am     1 <0>        0.0000
     19 O1            8.9170    0.7530   21.0260 O.2      1 <0>        0.0000
     20 Cl1          13.8840   -1.8490   21.2740 Cl       1 <0>        0.0000
     21 H1           12.2249    1.2198   24.6546 H        1 <0>        0.0000
     22 H2            9.8763    0.5350   24.3454 H        1 <0>        0.0000
     23 H3           14.0077    0.1988   23.2842 H        1 <0>        0.0000
     24 H4           11.0892   -2.3009   21.3624 H        1 <0>        0.0000
     25 H5            6.1525    0.9989   16.7642 H        1 <0>        0.0000
     26 H6            4.3537   -0.3316   21.6922 H        1 <0>        0.0000
     27 H7            2.1290    0.5228   21.0888 H        1 <0>        0.0000
     28 H8            1.6842    1.4869   18.8431 H        1 <0>        0.0000
     29 H9            3.5430    1.5873   17.1651 H        1 <0>        0.0000
     30 H10           8.7774   -2.2383   22.1732 H        1 <0>        0.0000
     31 H11           8.2557   -1.0153   23.3257 H        1 <0>        0.0000
     32 H12           6.9398   -1.7056   21.0280 H        1 <0>        0.0000
@<TRIPOS>BOND
     1    1    2 ar
     2    1    3 ar
     3    2    6 ar
     4    3    7 ar
     5    4    6 ar
     6    4    7 ar
     7    5   16 2
     8    5   17 1
     9    6   15 1
    10    7   20 1
    11    8    9 2
    12    8   10 1
    13    8   17 1
    14    9   16 1
    15    9   18 1
    16   10   11 2
    17   11   12 1
    18   12   13 2
    19   13   17 1
    20   14   15 1
    21   14   18 am
    22   14   19 2
    23    1   21 1
    24    2   22 1
    25    3   23 1
    26    4   24 1
    27    5   25 1
    28   10   26 1
    29   11   27 1
    30   12   28 1
    31   13   29 1
    32   15   30 1
    33   15   31 1
    34   18   32 1
@<TRIPOS>SUBSTRUCTURE
     1 <0>         1 
