@<TRIPOS>MOLECULE
EDJ-MED-a364e151-1_1
   38    40     1     0     0
SMALL
NO_CHARGES


@<TRIPOS>ATOM
      1 C1           11.9780    0.4600   23.9150 C.ar     1 <0>        0.0000
      2 C2           10.6560    0.0720   23.7350 C.ar     1 <0>        0.0000
      3 C3           12.9840   -0.1200   23.1530 C.ar     1 <0>        0.0000
      4 C4           11.3360   -1.5050   22.0650 C.ar     1 <0>        0.0000
      5 C5            5.3381    0.7876   17.4227 C.ar     1 <0>        0.0000
      6 C6            6.9429   -0.5784   18.3305 C.ar     1 <0>        0.0000
      7 C7            4.8934    1.2072   18.6738 C.ar     1 <0>        0.0000
      8 C8            5.5539    0.6974   19.8005 C.ar     1 <0>        0.0000
      9 C9           10.3220   -0.8940   22.7910 C.ar     1 <0>        0.0000
     10 C10           6.5902   -0.2233   19.6225 C.ar     1 <0>        0.0000
     11 C11          12.6400   -1.1000   22.2390 C.ar     1 <0>        0.0000
     12 C12           8.3880   -0.3240   21.3070 C.2      1 <0>        0.0000
     13 C13           3.7866    2.2187   18.7855 C.3      1 <0>        0.0000
     14 C14           5.1295    1.0747   21.1970 C.3      1 <0>        0.0000
     15 C15           3.1774    2.2839   20.1855 C.3      1 <0>        0.0000
     16 C16           4.2736    2.3402   21.2432 C.3      1 <0>        0.0000
     17 C17           8.8810   -1.1900   22.4510 C.3      1 <0>        0.0000
     18 N1            6.3437   -0.0933   17.2230 N.ar     1 <0>        0.0000
     19 N2            7.2820   -0.7860   20.6970 N.am     1 <0>        0.0000
     20 O1            8.9170    0.7530   21.0260 O.2      1 <0>        0.0000
     21 Cl1          13.8840   -1.8490   21.2740 Cl       1 <0>        0.0000
     22 H1           12.2249    1.2198   24.6546 H        1 <0>        0.0000
     23 H2            9.8763    0.5350   24.3454 H        1 <0>        0.0000
     24 H3           14.0077    0.1988   23.2842 H        1 <0>        0.0000
     25 H4           11.0892   -2.3009   21.3624 H        1 <0>        0.0000
     26 H5            4.8795    1.1624   16.5121 H        1 <0>        0.0000
     27 H6            7.7456   -1.2843   18.1372 H        1 <0>        0.0000
     28 H7            4.1598    3.2138   18.5159 H        1 <0>        0.0000
     29 H8            3.0054    1.9508   18.0632 H        1 <0>        0.0000
     30 H9            4.5540    0.2625   21.6571 H        1 <0>        0.0000
     31 H10           6.0332    1.2286   21.8003 H        1 <0>        0.0000
     32 H11           2.5381    3.1715   20.2733 H        1 <0>        0.0000
     33 H12           2.5376    1.4096   20.3496 H        1 <0>        0.0000
     34 H13           3.8189    2.4475   22.2363 H        1 <0>        0.0000
     35 H14           4.9080    3.2193   21.0837 H        1 <0>        0.0000
     36 H15           8.7774   -2.2383   22.1732 H        1 <0>        0.0000
     37 H16           8.2557   -1.0153   23.3257 H        1 <0>        0.0000
     38 H17           6.8982   -1.6624   21.0679 H        1 <0>        0.0000
@<TRIPOS>BOND
     1    1    2 ar
     2    1    3 ar
     3    2    9 ar
     4    3   11 ar
     5    4    9 ar
     6    4   11 ar
     7    5    7 ar
     8    5   18 ar
     9    6   10 ar
    10    6   18 ar
    11    7    8 ar
    12    7   13 1
    13    8   10 ar
    14    8   14 1
    15    9   17 1
    16   10   19 1
    17   11   21 1
    18   12   17 1
    19   12   19 am
    20   12   20 2
    21   13   15 1
    22   14   16 1
    23   15   16 1
    24    1   22 1
    25    2   23 1
    26    3   24 1
    27    4   25 1
    28    5   26 1
    29    6   27 1
    30   13   28 1
    31   13   29 1
    32   14   30 1
    33   14   31 1
    34   15   32 1
    35   15   33 1
    36   16   34 1
    37   16   35 1
    38   17   36 1
    39   17   37 1
    40   19   38 1
@<TRIPOS>SUBSTRUCTURE
     1 <0>         1 
