@<TRIPOS>MOLECULE
EDJ-MED-c8e7a002-3_1
   36    38     1     0     0
SMALL
NO_CHARGES


@<TRIPOS>ATOM
      1 C1           11.9780    0.4600   23.9150 C.ar     1 <0>        0.0000
      2 C2            5.7767    2.0548   20.7738 C.ar     1 <0>        0.0000
      3 C3           10.6560    0.0720   23.7350 C.ar     1 <0>        0.0000
      4 C4            5.0302    3.2004   20.4707 C.ar     1 <0>        0.0000
      5 C5           12.9840   -0.1200   23.1530 C.ar     1 <0>        0.0000
      6 C6           11.3360   -1.5050   22.0650 C.ar     1 <0>        0.0000
      7 C7            4.5460    2.3716   18.2331 C.ar     1 <0>        0.0000
      8 C8            5.9063    1.0590   19.7914 C.ar     1 <0>        0.0000
      9 C9           10.3220   -0.8940   22.7910 C.ar     1 <0>        0.0000
     10 C10           5.2945    1.2375   18.5556 C.ar     1 <0>        0.0000
     11 C11           4.4262    3.3542   19.2213 C.ar     1 <0>        0.0000
     12 C12          12.6400   -1.1000   22.2390 C.ar     1 <0>        0.0000
     13 C13           6.5430   -0.1966   19.6884 C.2      1 <0>        0.0000
     14 C14           8.3880   -0.3240   21.3070 C.2      1 <0>        0.0000
     15 C15           3.6168    5.4499   20.0014 C.3      1 <0>        0.0000
     16 C16           8.8810   -1.1900   22.4510 C.3      1 <0>        0.0000
     17 N1            6.3602   -0.7744   18.4990 N.2      1 <0>        0.0000
     18 N2            5.6024    0.1148   17.8357 N.pl3    1 <0>        0.0000
     19 N3            7.2820   -0.7860   20.6970 N.am     1 <0>        0.0000
     20 O1            8.9170    0.7530   21.0260 O.2      1 <0>        0.0000
     21 O2            3.7061    4.4820   18.9586 O.3      1 <0>        0.0000
     22 Cl1          13.8840   -1.8490   21.2740 Cl       1 <0>        0.0000
     23 H1           12.2249    1.2198   24.6546 H        1 <0>        0.0000
     24 H2            6.2411    1.9488   21.7497 H        1 <0>        0.0000
     25 H3            9.8763    0.5350   24.3454 H        1 <0>        0.0000
     26 H4            4.9235    3.9772   21.2244 H        1 <0>        0.0000
     27 H5           14.0077    0.1988   23.2842 H        1 <0>        0.0000
     28 H6           11.0892   -2.3009   21.3624 H        1 <0>        0.0000
     29 H7            4.0801    2.4846   17.2600 H        1 <0>        0.0000
     30 H8            3.0165    6.2977   19.6622 H        1 <0>        0.0000
     31 H9            4.6202    5.7863   20.2743 H        1 <0>        0.0000
     32 H10           3.1388    4.9926   20.8709 H        1 <0>        0.0000
     33 H11           8.7774   -2.2383   22.1732 H        1 <0>        0.0000
     34 H12           8.2557   -1.0153   23.3257 H        1 <0>        0.0000
     35 H13           5.3277   -0.1051   16.8864 H        1 <0>        0.0000
     36 H14           6.9394   -1.7027   21.0257 H        1 <0>        0.0000
@<TRIPOS>BOND
     1    1    3 ar
     2    1    5 ar
     3    2    4 ar
     4    2    8 ar
     5    3    9 ar
     6    4   11 ar
     7    5   12 ar
     8    6    9 ar
     9    6   12 ar
    10    7   10 ar
    11    7   11 ar
    12    8   10 ar
    13    8   13 1
    14    9   16 1
    15   10   18 1
    16   11   21 1
    17   12   22 1
    18   13   17 2
    19   13   19 1
    20   14   16 1
    21   14   19 am
    22   14   20 2
    23   15   21 1
    24   17   18 1
    25    1   23 1
    26    2   24 1
    27    3   25 1
    28    4   26 1
    29    5   27 1
    30    6   28 1
    31    7   29 1
    32   15   30 1
    33   15   31 1
    34   15   32 1
    35   16   33 1
    36   16   34 1
    37   18   35 1
    38   19   36 1
@<TRIPOS>SUBSTRUCTURE
     1 <0>         1 
