@<TRIPOS>MOLECULE
EDJ-MED-c8e7a002-4_1
   34    36     1     0     0
SMALL
NO_CHARGES


@<TRIPOS>ATOM
      1 C1           11.9780    0.4600   23.9150 C.ar     1 <0>        0.0000
      2 C2           10.6560    0.0720   23.7350 C.ar     1 <0>        0.0000
      3 C3           12.9840   -0.1200   23.1530 C.ar     1 <0>        0.0000
      4 C4           11.3360   -1.5050   22.0650 C.ar     1 <0>        0.0000
      5 C5            3.4328    1.1770   19.2460 C.2      1 <0>        0.0000
      6 C6           10.3220   -0.8940   22.7910 C.ar     1 <0>        0.0000
      7 C7           12.6400   -1.1000   22.2390 C.ar     1 <0>        0.0000
      8 C8            5.3261    0.2585   19.8417 C.2      1 <0>        0.0000
      9 C9            6.5634    0.7843   17.3842 C.2      1 <0>        0.0000
     10 C10           5.2913    1.1678   17.5744 C.2      1 <0>        0.0000
     11 C11           6.6807   -0.1529   19.6459 C.2      1 <0>        0.0000
     12 C12           7.2916    0.0959   18.4598 C.2      1 <0>        0.0000
     13 C13           8.3880   -0.3240   21.3070 C.2      1 <0>        0.0000
     14 C14           8.7052   -0.2737   18.1031 C.3      1 <0>        0.0000
     15 C15           8.8810   -1.1900   22.4510 C.3      1 <0>        0.0000
     16 N1            3.2946    0.7399   20.4771 N.2      1 <0>        0.0000
     17 N2            4.4884    0.1600   20.8546 N.2      1 <0>        0.0000
     18 N3            4.6912    0.9021   18.7935 N.pl3    1 <0>        0.0000
     19 N4            7.2820   -0.7860   20.6970 N.am     1 <0>        0.0000
     20 O1            8.9170    0.7530   21.0260 O.2      1 <0>        0.0000
     21 Cl1          13.8840   -1.8490   21.2740 Cl       1 <0>        0.0000
     22 H1           12.2249    1.2198   24.6546 H        1 <0>        0.0000
     23 H2            9.8763    0.5350   24.3454 H        1 <0>        0.0000
     24 H3           14.0077    0.1988   23.2842 H        1 <0>        0.0000
     25 H4           11.0892   -2.3009   21.3624 H        1 <0>        0.0000
     26 H5            2.6817    1.6814   18.6545 H        1 <0>        0.0000
     27 H6            7.0659    0.9773   16.4427 H        1 <0>        0.0000
     28 H7            4.7088    1.6777   16.8170 H        1 <0>        0.0000
     29 H8            9.3689    0.5420   18.3754 H        1 <0>        0.0000
     30 H9            8.7694   -0.4590   17.0343 H        1 <0>        0.0000
     31 H10           8.9879   -1.1738   18.6421 H        1 <0>        0.0000
     32 H11           8.2535   -1.0146   23.3240 H        1 <0>        0.0000
     33 H12           8.7756   -2.2377   22.1724 H        1 <0>        0.0000
     34 H13           6.8588   -1.6468   21.0213 H        1 <0>        0.0000
@<TRIPOS>BOND
     1    1    2 ar
     2    1    3 ar
     3    2    6 ar
     4    3    7 ar
     5    4    6 ar
     6    4    7 ar
     7    5   16 2
     8    5   18 1
     9    6   15 1
    10    7   21 1
    11    8   11 1
    12    8   17 2
    13    8   18 1
    14    9   10 2
    15    9   12 1
    16   10   18 1
    17   11   12 2
    18   11   19 1
    19   12   14 1
    20   13   15 1
    21   13   19 am
    22   13   20 2
    23   16   17 1
    24    1   22 1
    25    2   23 1
    26    3   24 1
    27    4   25 1
    28    5   26 1
    29    9   27 1
    30   10   28 1
    31   14   29 1
    32   14   30 1
    33   14   31 1
    34   15   32 1
    35   15   33 1
    36   19   34 1
@<TRIPOS>SUBSTRUCTURE
     1 <0>         1 
