@<TRIPOS>MOLECULE
EDJ-MED-976da9a6-1_1
   36    38     1     0     0
SMALL
NO_CHARGES


@<TRIPOS>ATOM
      1 C1           11.9780    0.4600   23.9150 C.ar     1 <0>        0.0000
      2 C2           10.6560    0.0720   23.7350 C.ar     1 <0>        0.0000
      3 C3           12.9840   -0.1200   23.1530 C.ar     1 <0>        0.0000
      4 C4           11.3360   -1.5050   22.0650 C.ar     1 <0>        0.0000
      5 C5            5.3449    0.8662   17.4528 C.ar     1 <0>        0.0000
      6 C6            7.2306   -0.0322   18.4102 C.ar     1 <0>        0.0000
      7 C7            4.6091    0.7288   18.6246 C.ar     1 <0>        0.0000
      8 C8           10.3220   -0.8940   22.7910 C.ar     1 <0>        0.0000
      9 C9            6.5902   -0.2243   19.6234 C.ar     1 <0>        0.0000
     10 C10           5.2534    0.1514   19.7207 C.ar     1 <0>        0.0000
     11 C11          12.6400   -1.1000   22.2390 C.ar     1 <0>        0.0000
     12 C12           8.3880   -0.3240   21.3070 C.2      1 <0>        0.0000
     13 C13           3.1757    1.1565   18.6946 C.3      1 <0>        0.0000
     14 C14           2.7312    1.2648   20.1474 C.3      1 <0>        0.0000
     15 C15           3.2183    0.0436   20.9131 C.3      1 <0>        0.0000
     16 C16           8.8810   -1.1900   22.4510 C.3      1 <0>        0.0000
     17 N1            6.6400    0.5006   17.3183 N.ar     1 <0>        0.0000
     18 N2            7.2820   -0.7860   20.6970 N.am     1 <0>        0.0000
     19 O1            8.9170    0.7530   21.0260 O.2      1 <0>        0.0000
     20 O2            4.6477   -0.0457   20.9347 O.3      1 <0>        0.0000
     21 Cl1          13.8840   -1.8490   21.2740 Cl       1 <0>        0.0000
     22 H1           12.2249    1.2198   24.6546 H        1 <0>        0.0000
     23 H2            9.8763    0.5350   24.3454 H        1 <0>        0.0000
     24 H3           14.0077    0.1988   23.2842 H        1 <0>        0.0000
     25 H4           11.0892   -2.3009   21.3624 H        1 <0>        0.0000
     26 H5            4.9000    1.2930   16.5590 H        1 <0>        0.0000
     27 H6            8.2714   -0.3101   18.2706 H        1 <0>        0.0000
     28 H7            3.0362    2.1231   18.1975 H        1 <0>        0.0000
     29 H8            2.5613    0.4138   18.1716 H        1 <0>        0.0000
     30 H9            3.1665    2.1684   20.5930 H        1 <0>        0.0000
     31 H10           1.6415    1.3539   20.2054 H        1 <0>        0.0000
     32 H11           2.8835    0.1057   21.9538 H        1 <0>        0.0000
     33 H12           2.8094   -0.8842   20.4939 H        1 <0>        0.0000
     34 H13           8.7774   -2.2383   22.1732 H        1 <0>        0.0000
     35 H14           8.2557   -1.0153   23.3257 H        1 <0>        0.0000
     36 H15           6.8982   -1.6628   21.0683 H        1 <0>        0.0000
@<TRIPOS>BOND
     1    1    2 ar
     2    1    3 ar
     3    2    8 ar
     4    3   11 ar
     5    4    8 ar
     6    4   11 ar
     7    5    7 ar
     8    5   17 ar
     9    6    9 ar
    10    6   17 ar
    11    7   10 ar
    12    7   13 1
    13    8   16 1
    14    9   10 ar
    15    9   18 1
    16   10   20 1
    17   11   21 1
    18   12   16 1
    19   12   18 am
    20   12   19 2
    21   13   14 1
    22   14   15 1
    23   15   20 1
    24    1   22 1
    25    2   23 1
    26    3   24 1
    27    4   25 1
    28    5   26 1
    29    6   27 1
    30   13   28 1
    31   13   29 1
    32   14   30 1
    33   14   31 1
    34   15   32 1
    35   15   33 1
    36   16   34 1
    37   16   35 1
    38   18   36 1
@<TRIPOS>SUBSTRUCTURE
     1 <0>         1 
