EDG-MED-0da5ad92-2_1
  -OEChem-07022116353D

 28 29  0     0  0  0  0  0  0999 V2000
   11.9780    0.4600   23.9150 C   0  0  0  0  0  0  0  0  0  0  0  0
    4.6067    0.7488   18.6383 C   0  0  0  0  0  0  0  0  0  0  0  0
   10.6560    0.0720   23.7350 C   0  0  0  0  0  0  0  0  0  0  0  0
    5.2596    0.1795   19.7259 C   0  0  0  0  0  0  0  0  0  0  0  0
   12.9840   -0.1200   23.1530 C   0  0  0  0  0  0  0  0  0  0  0  0
   11.3360   -1.5050   22.0650 C   0  0  0  0  0  0  0  0  0  0  0  0
    5.3237    0.9114   17.4639 C   0  0  0  0  0  0  0  0  0  0  0  0
    7.2190    0.0008   18.3898 C   0  0  0  0  0  0  0  0  0  0  0  0
   10.3220   -0.8940   22.7910 C   0  0  0  0  0  0  0  0  0  0  0  0
    6.5908   -0.2043   19.6076 C   0  0  0  0  0  0  0  0  0  0  0  0
   12.6400   -1.1000   22.2390 C   0  0  0  0  0  0  0  0  0  0  0  0
    8.3880   -0.3240   21.3070 C   0  0  0  0  0  0  0  0  0  0  0  0
    8.8810   -1.1900   22.4510 C   0  0  0  0  0  0  0  0  0  0  0  0
    6.6177    0.5508   17.3110 N   0  0  0  0  0  0  0  0  0  0  0  0
    7.2820   -0.7860   20.6970 N   0  0  0  0  0  0  0  0  0  0  0  0
    8.9170    0.7530   21.0260 O   0  0  0  0  0  0  0  0  0  0  0  0
   13.8840   -1.8490   21.2740 Cl  0  0  0  0  0  0  0  0  0  0  0  0
   12.2249    1.2198   24.6546 H   0  0  0  0  0  0  0  0  0  0  0  0
    3.5693    1.0554   18.7078 H   0  0  0  0  0  0  0  0  0  0  0  0
    9.8763    0.5350   24.3454 H   0  0  0  0  0  0  0  0  0  0  0  0
    4.7222    0.0397   20.6602 H   0  0  0  0  0  0  0  0  0  0  0  0
   14.0077    0.1988   23.2842 H   0  0  0  0  0  0  0  0  0  0  0  0
   11.0892   -2.3009   21.3624 H   0  0  0  0  0  0  0  0  0  0  0  0
    4.8601    1.3513   16.5871 H   0  0  0  0  0  0  0  0  0  0  0  0
    8.2571   -0.2783   18.2360 H   0  0  0  0  0  0  0  0  0  0  0  0
    8.7709   -2.2387   22.1706 H   0  0  0  0  0  0  0  0  0  0  0  0
    8.2491   -1.0157   23.3232 H   0  0  0  0  0  0  0  0  0  0  0  0
    6.8973   -1.6552   21.0612 H   0  0  0  0  0  0  0  0  0  0  0  0
  1  3  1  0  0  0  0
  1  5  2  0  0  0  0
  2  4  2  0  0  0  0
  2  7  1  0  0  0  0
  3  9  2  0  0  0  0
  4 10  1  0  0  0  0
  5 11  1  0  0  0  0
  6  9  1  0  0  0  0
  6 11  2  0  0  0  0
  7 14  2  0  0  0  0
  8 10  2  0  0  0  0
  8 14  1  0  0  0  0
  9 13  1  0  0  0  0
 10 15  1  0  0  0  0
 11 17  1  0  0  0  0
 12 13  1  0  0  0  0
 12 15  1  0  0  0  0
 12 16  2  0  0  0  0
  1 18  1  0  0  0  0
  2 19  1  0  0  0  0
  3 20  1  0  0  0  0
  4 21  1  0  0  0  0
  5 22  1  0  0  0  0
  6 23  1  0  0  0  0
  7 24  1  0  0  0  0
  8 25  1  0  0  0  0
 13 26  1  0  0  0  0
 13 27  1  0  0  0  0
 15 28  1  0  0  0  0
M  END
> <compound>
EDG-MED-0da5ad92-2

> <compound_smiles>
c1cc(cc(c1)Cl)CC(=O)Nc2cccnc2

> <enantiomer_smiles>
c1cc(cc(c1)Cl)CC(=O)Nc2cccnc2

> <scaffold>
chlorobenzene-linker

> <canonical_CID>
EDG-MED-0da5ad92-2

> <r_inhibition_at_20_uM>

> <r_inhibition_at_50_uM>

> <r_avg_IC50>
99.0

> <f_inhibition_at_20_uM>

> <f_inhibition_at_50_uM>

> <f_avg_IC50>
53.717306778232

> <f_avg_pIC50>

> <relative_solubility_at_20_uM>

> <relative_solubility_at_100_uM>

> <trypsin_IC50>
99.0

> <NMR_std_ratio>

> <acrylamide>
False

> <chloroacetamide>
False

> <series>
3-aminopyridine-like

> <frag_id>
x10201

> <clash_score>
0

> <docking_score>
-9.220620155334473

> <overlap_score>
0.8013867139816284

> <MMFF_internal_energy>
68.05867621973613

> <docked_smiles>
c1cc(cc(c1)Cl)CC(=O)Nc2cccnc2

$$$$
