EDJ-MED-c8e7a002-6_1
  -OEChem-07022116353D

 35 37  0     0  0  0  0  0  0999 V2000
   11.9780    0.4600   23.9150 C   0  0  0  0  0  0  0  0  0  0  0  0
   10.6560    0.0720   23.7350 C   0  0  0  0  0  0  0  0  0  0  0  0
   12.9840   -0.1200   23.1530 C   0  0  0  0  0  0  0  0  0  0  0  0
   11.3360   -1.5050   22.0650 C   0  0  0  0  0  0  0  0  0  0  0  0
    5.4177    0.9283   20.4831 C   0  0  0  0  0  0  0  0  0  0  0  0
   10.3220   -0.8940   22.7910 C   0  0  0  0  0  0  0  0  0  0  0  0
   12.6400   -1.1000   22.2390 C   0  0  0  0  0  0  0  0  0  0  0  0
    4.8458    1.8055   21.4590 C   0  0  0  0  0  0  0  0  0  0  0  0
    4.6734    1.2670   19.3755 C   0  0  0  0  0  0  0  0  0  0  0  0
    6.2693   -0.0307   20.0591 C   0  0  0  0  0  0  0  0  0  0  0  0
    8.3880   -0.3240   21.3070 C   0  0  0  0  0  0  0  0  0  0  0  0
    5.2230    1.9236   22.8783 C   0  0  0  0  0  0  0  0  0  0  0  0
    2.8137    2.8316   18.7361 C   0  0  0  0  0  0  0  0  0  0  0  0
    8.8810   -1.1900   22.4510 C   0  0  0  0  0  0  0  0  0  0  0  0
    3.8411    2.6003   20.9629 N   0  0  0  0  0  0  0  0  0  0  0  0
    4.9327    0.6453   18.2715 N   0  0  0  0  0  0  0  0  0  0  0  0
    5.9485   -0.1825   18.7020 N   0  0  0  0  0  0  0  0  0  0  0  0
    3.7576    2.2338   19.6416 N   0  0  0  0  0  0  0  0  0  0  0  0
    7.2820   -0.7860   20.6970 N   0  0  0  0  0  0  0  0  0  0  0  0
    8.9170    0.7530   21.0260 O   0  0  0  0  0  0  0  0  0  0  0  0
   13.8840   -1.8490   21.2740 Cl  0  0  0  0  0  0  0  0  0  0  0  0
   12.2249    1.2198   24.6546 H   0  0  0  0  0  0  0  0  0  0  0  0
    9.8763    0.5350   24.3454 H   0  0  0  0  0  0  0  0  0  0  0  0
   14.0077    0.1988   23.2842 H   0  0  0  0  0  0  0  0  0  0  0  0
   11.0892   -2.3009   21.3624 H   0  0  0  0  0  0  0  0  0  0  0  0
    6.0164    2.6770   23.0200 H   0  0  0  0  0  0  0  0  0  0  0  0
    4.3683    2.2167   23.5134 H   0  0  0  0  0  0  0  0  0  0  0  0
    5.5932    0.9685   23.2916 H   0  0  0  0  0  0  0  0  0  0  0  0
    1.8937    2.2422   18.7704 H   0  0  0  0  0  0  0  0  0  0  0  0
    2.6185    3.8632   19.0423 H   0  0  0  0  0  0  0  0  0  0  0  0
    3.2320    2.8311   17.7257 H   0  0  0  0  0  0  0  0  0  0  0  0
    8.7709   -2.2387   22.1706 H   0  0  0  0  0  0  0  0  0  0  0  0
    8.2491   -1.0157   23.3232 H   0  0  0  0  0  0  0  0  0  0  0  0
    6.3734   -0.8147   18.0351 H   0  0  0  0  0  0  0  0  0  0  0  0
    7.1590   -1.7964   20.6938 H   0  0  0  0  0  0  0  0  0  0  0  0
  1  2  2  0  0  0  0
  1  3  1  0  0  0  0
  2  6  1  0  0  0  0
  3  7  2  0  0  0  0
  4  6  2  0  0  0  0
  4  7  1  0  0  0  0
  5  8  1  0  0  0  0
  5  9  1  0  0  0  0
  5 10  2  0  0  0  0
  6 14  1  0  0  0  0
  7 21  1  0  0  0  0
  8 12  1  0  0  0  0
  8 15  2  0  0  0  0
  9 16  2  0  0  0  0
  9 18  1  0  0  0  0
 10 17  1  0  0  0  0
 10 19  1  0  0  0  0
 11 14  1  0  0  0  0
 11 19  1  0  0  0  0
 11 20  2  0  0  0  0
 13 18  1  0  0  0  0
 15 18  1  0  0  0  0
 16 17  1  0  0  0  0
  1 22  1  0  0  0  0
  2 23  1  0  0  0  0
  3 24  1  0  0  0  0
  4 25  1  0  0  0  0
 12 26  1  0  0  0  0
 12 27  1  0  0  0  0
 12 28  1  0  0  0  0
 13 29  1  0  0  0  0
 13 30  1  0  0  0  0
 13 31  1  0  0  0  0
 14 32  1  0  0  0  0
 14 33  1  0  0  0  0
 17 34  1  0  0  0  0
 19 35  1  0  0  0  0
M  END
> <compound>
EDJ-MED-c8e7a002-6

> <compound_smiles>
Cc1c2c([nH]nc2NC(=O)Cc3cccc(c3)Cl)n(n1)C

> <enantiomer_smiles>
Cc1c2c([nH]nc2NC(=O)Cc3cccc(c3)Cl)n(n1)C

> <scaffold>
chlorobenzene-linker

> <canonical_CID>
EDJ-MED-c8e7a002-6

> <r_inhibition_at_20_uM>

> <r_inhibition_at_50_uM>

> <r_avg_IC50>
99.0

> <f_inhibition_at_20_uM>

> <f_inhibition_at_50_uM>

> <f_avg_IC50>
99.5

> <f_avg_pIC50>

> <relative_solubility_at_20_uM>

> <relative_solubility_at_100_uM>

> <trypsin_IC50>

> <NMR_std_ratio>

> <acrylamide>
False

> <chloroacetamide>
False

> <series>
3-aminopyridine-like

> <frag_id>

> <clash_score>
0

> <docking_score>
-6.746286392211914

> <overlap_score>
0.9331920742988586

> <MMFF_internal_energy>
155.18823210387868

> <docked_smiles>
Cc1c2c([nH]nc2n(n1)C)NC(=O)Cc3cccc(c3)Cl

$$$$
