EDJ-MED-c8e7a002-1_1
  -OEChem-07022116353D

 35 37  0     0  0  0  0  0  0999 V2000
   11.9780    0.4600   23.9150 C   0  0  0  0  0  0  0  0  0  0  0  0
    5.7559    2.0651   20.7463 C   0  0  0  0  0  0  0  0  0  0  0  0
   10.6560    0.0720   23.7350 C   0  0  0  0  0  0  0  0  0  0  0  0
    5.0006    3.1961   20.4053 C   0  0  0  0  0  0  0  0  0  0  0  0
   12.9840   -0.1200   23.1530 C   0  0  0  0  0  0  0  0  0  0  0  0
   11.3360   -1.5050   22.0650 C   0  0  0  0  0  0  0  0  0  0  0  0
    4.5511    2.3178   18.1753 C   0  0  0  0  0  0  0  0  0  0  0  0
    5.9051    1.0542   19.7856 C   0  0  0  0  0  0  0  0  0  0  0  0
   10.3220   -0.8940   22.7910 C   0  0  0  0  0  0  0  0  0  0  0  0
    5.3066    1.2099   18.5475 C   0  0  0  0  0  0  0  0  0  0  0  0
    4.4104    3.3179   19.1430 C   0  0  0  0  0  0  0  0  0  0  0  0
   12.6400   -1.1000   22.2390 C   0  0  0  0  0  0  0  0  0  0  0  0
    6.5430   -0.1977   19.6893 C   0  0  0  0  0  0  0  0  0  0  0  0
    8.3880   -0.3240   21.3070 C   0  0  0  0  0  0  0  0  0  0  0  0
    3.5712    5.4208   19.8705 C   0  0  0  0  0  0  0  0  0  0  0  0
    8.8810   -1.1900   22.4510 C   0  0  0  0  0  0  0  0  0  0  0  0
    6.3588   -0.7726   18.4971 N   0  0  0  0  0  0  0  0  0  0  0  0
    7.2820   -0.7860   20.6970 N   0  0  0  0  0  0  0  0  0  0  0  0
    8.9170    0.7530   21.0260 O   0  0  0  0  0  0  0  0  0  0  0  0
    5.5755    0.1208   17.7766 O   0  0  0  0  0  0  0  0  0  0  0  0
    3.6827    4.4335   18.8485 O   0  0  0  0  0  0  0  0  0  0  0  0
   13.8840   -1.8490   21.2740 Cl  0  0  0  0  0  0  0  0  0  0  0  0
   12.2249    1.2198   24.6546 H   0  0  0  0  0  0  0  0  0  0  0  0
    6.2065    1.9835   21.7305 H   0  0  0  0  0  0  0  0  0  0  0  0
    9.8763    0.5350   24.3454 H   0  0  0  0  0  0  0  0  0  0  0  0
    4.8755    3.9881   21.1402 H   0  0  0  0  0  0  0  0  0  0  0  0
   14.0077    0.1988   23.2842 H   0  0  0  0  0  0  0  0  0  0  0  0
   11.0892   -2.3009   21.3624 H   0  0  0  0  0  0  0  0  0  0  0  0
    4.1005    2.3988   17.1931 H   0  0  0  0  0  0  0  0  0  0  0  0
    2.9672    6.2558   19.5072 H   0  0  0  0  0  0  0  0  0  0  0  0
    4.5679    5.7722   20.1492 H   0  0  0  0  0  0  0  0  0  0  0  0
    3.0867    4.9761   20.7430 H   0  0  0  0  0  0  0  0  0  0  0  0
    8.7774   -2.2383   22.1732 H   0  0  0  0  0  0  0  0  0  0  0  0
    8.2557   -1.0153   23.3257 H   0  0  0  0  0  0  0  0  0  0  0  0
    6.9395   -1.7032   21.0261 H   0  0  0  0  0  0  0  0  0  0  0  0
  1  3  2  0  0  0  0
  1  5  1  0  0  0  0
  2  4  2  0  0  0  0
  2  8  1  0  0  0  0
  3  9  1  0  0  0  0
  4 11  1  0  0  0  0
  5 12  2  0  0  0  0
  6  9  2  0  0  0  0
  6 12  1  0  0  0  0
  7 10  1  0  0  0  0
  7 11  2  0  0  0  0
  8 10  2  0  0  0  0
  8 13  1  0  0  0  0
  9 16  1  0  0  0  0
 10 20  1  0  0  0  0
 11 21  1  0  0  0  0
 12 22  1  0  0  0  0
 13 17  2  0  0  0  0
 13 18  1  0  0  0  0
 14 16  1  0  0  0  0
 14 18  1  0  0  0  0
 14 19  2  0  0  0  0
 15 21  1  0  0  0  0
 17 20  1  0  0  0  0
  1 23  1  0  0  0  0
  2 24  1  0  0  0  0
  3 25  1  0  0  0  0
  4 26  1  0  0  0  0
  5 27  1  0  0  0  0
  6 28  1  0  0  0  0
  7 29  1  0  0  0  0
 15 30  1  0  0  0  0
 15 31  1  0  0  0  0
 15 32  1  0  0  0  0
 16 33  1  0  0  0  0
 16 34  1  0  0  0  0
 18 35  1  0  0  0  0
M  END
> <compound>
EDJ-MED-c8e7a002-1

> <compound_smiles>
COc1ccc2c(c1)onc2NC(=O)Cc3cccc(c3)Cl

> <enantiomer_smiles>
COc1ccc2c(c1)onc2NC(=O)Cc3cccc(c3)Cl

> <scaffold>
chlorobenzene-linker

> <canonical_CID>
EDJ-MED-c8e7a002-1

> <r_inhibition_at_20_uM>

> <r_inhibition_at_50_uM>

> <r_avg_IC50>
99.0

> <f_inhibition_at_20_uM>

> <f_inhibition_at_50_uM>

> <f_avg_IC50>
99.5

> <f_avg_pIC50>

> <relative_solubility_at_20_uM>

> <relative_solubility_at_100_uM>

> <trypsin_IC50>

> <NMR_std_ratio>

> <acrylamide>
False

> <chloroacetamide>
False

> <series>
3-aminopyridine-like

> <frag_id>

> <clash_score>
1.454909169756185

> <docking_score>
-3.307006597518921

> <overlap_score>
0.8517985939979553

> <MMFF_internal_energy>
50.47053277319407

> <docked_smiles>
COc1ccc2c(c1)onc2NC(=O)Cc3cccc(c3)Cl

$$$$
