EDJ-MED-c8e7a002-15_1
  -OEChem-07022116353D

 31 33  0     0  0  0  0  0  0999 V2000
   11.9780    0.4600   23.9150 C   0  0  0  0  0  0  0  0  0  0  0  0
   10.6560    0.0720   23.7350 C   0  0  0  0  0  0  0  0  0  0  0  0
   12.9840   -0.1200   23.1530 C   0  0  0  0  0  0  0  0  0  0  0  0
    4.5481    2.3329   18.1851 C   0  0  0  0  0  0  0  0  0  0  0  0
   11.3360   -1.5050   22.0650 C   0  0  0  0  0  0  0  0  0  0  0  0
    4.4592    3.2779   19.1971 C   0  0  0  0  0  0  0  0  0  0  0  0
    5.8978    1.0552   19.7661 C   0  0  0  0  0  0  0  0  0  0  0  0
   10.3220   -0.8940   22.7910 C   0  0  0  0  0  0  0  0  0  0  0  0
    5.2956    1.2119   18.5238 C   0  0  0  0  0  0  0  0  0  0  0  0
   12.6400   -1.1000   22.2390 C   0  0  0  0  0  0  0  0  0  0  0  0
    6.5430   -0.1966   19.6885 C   0  0  0  0  0  0  0  0  0  0  0  0
    5.7487    2.0635   20.7184 C   0  0  0  0  0  0  0  0  0  0  0  0
    8.3880   -0.3240   21.3070 C   0  0  0  0  0  0  0  0  0  0  0  0
    8.8810   -1.1900   22.4510 C   0  0  0  0  0  0  0  0  0  0  0  0
    5.0264    3.1726   20.4235 N   0  0  0  0  0  0  0  0  0  0  0  0
    6.3731   -0.7938   18.5065 N   0  0  0  0  0  0  0  0  0  0  0  0
    5.6159    0.0809   17.8230 N   0  0  0  0  0  0  0  0  0  0  0  0
    7.2820   -0.7860   20.6970 N   0  0  0  0  0  0  0  0  0  0  0  0
    8.9170    0.7530   21.0260 O   0  0  0  0  0  0  0  0  0  0  0  0
   13.8840   -1.8490   21.2740 Cl  0  0  0  0  0  0  0  0  0  0  0  0
    6.5205    1.9643   22.4441 Br  0  0  0  0  0  0  0  0  0  0  0  0
   12.2249    1.2198   24.6546 H   0  0  0  0  0  0  0  0  0  0  0  0
    9.8763    0.5350   24.3454 H   0  0  0  0  0  0  0  0  0  0  0  0
   14.0077    0.1988   23.2842 H   0  0  0  0  0  0  0  0  0  0  0  0
    4.0788    2.4597   17.2190 H   0  0  0  0  0  0  0  0  0  0  0  0
   11.0892   -2.3009   21.3624 H   0  0  0  0  0  0  0  0  0  0  0  0
    3.8995    4.1950   19.0366 H   0  0  0  0  0  0  0  0  0  0  0  0
    8.7774   -2.2383   22.1732 H   0  0  0  0  0  0  0  0  0  0  0  0
    8.2557   -1.0153   23.3257 H   0  0  0  0  0  0  0  0  0  0  0  0
    5.3505   -0.1555   16.8752 H   0  0  0  0  0  0  0  0  0  0  0  0
    6.9394   -1.7028   21.0257 H   0  0  0  0  0  0  0  0  0  0  0  0
  1  2  1  0  0  0  0
  1  3  2  0  0  0  0
  2  8  2  0  0  0  0
  3 10  1  0  0  0  0
  4  6  1  0  0  0  0
  4  9  2  0  0  0  0
  5  8  1  0  0  0  0
  5 10  2  0  0  0  0
  6 15  2  0  0  0  0
  7  9  1  0  0  0  0
  7 11  1  0  0  0  0
  7 12  2  0  0  0  0
  8 14  1  0  0  0  0
  9 17  1  0  0  0  0
 10 20  1  0  0  0  0
 11 16  2  0  0  0  0
 11 18  1  0  0  0  0
 12 15  1  0  0  0  0
 12 21  1  0  0  0  0
 13 14  1  0  0  0  0
 13 18  1  0  0  0  0
 13 19  2  0  0  0  0
 16 17  1  0  0  0  0
  1 22  1  0  0  0  0
  2 23  1  0  0  0  0
  3 24  1  0  0  0  0
  4 25  1  0  0  0  0
  5 26  1  0  0  0  0
  6 27  1  0  0  0  0
 14 28  1  0  0  0  0
 14 29  1  0  0  0  0
 17 30  1  0  0  0  0
 18 31  1  0  0  0  0
M  END
> <compound>
EDJ-MED-c8e7a002-15

> <compound_smiles>
c1cc(cc(c1)Cl)CC(=O)Nc2c3c(ccnc3Br)[nH]n2

> <enantiomer_smiles>
c1cc(cc(c1)Cl)CC(=O)Nc2c3c(ccnc3Br)[nH]n2

> <scaffold>
chlorobenzene-linker

> <canonical_CID>
EDJ-MED-c8e7a002-15

> <r_inhibition_at_20_uM>

> <r_inhibition_at_50_uM>

> <r_avg_IC50>
99.0

> <f_inhibition_at_20_uM>

> <f_inhibition_at_50_uM>

> <f_avg_IC50>
99.5

> <f_avg_pIC50>

> <relative_solubility_at_20_uM>

> <relative_solubility_at_100_uM>

> <trypsin_IC50>

> <NMR_std_ratio>

> <acrylamide>
False

> <chloroacetamide>
False

> <series>
3-aminopyridine-like

> <frag_id>

> <clash_score>
0

> <docking_score>
-4.830475330352783

> <overlap_score>
0.8565670847892761

> <MMFF_internal_energy>
45.66929600162873

> <docked_smiles>
c1cc(cc(c1)Cl)CC(=O)Nc2c3c(ccnc3Br)[nH]n2

$$$$
