EDJ-MED-00c1612e-1_1
  -OEChem-07022116353D

 38 40  0     0  0  0  0  0  0999 V2000
   11.9780    0.4600   23.9150 C   0  0  0  0  0  0  0  0  0  0  0  0
    3.8518    2.1350   18.7974 C   0  0  0  0  0  0  0  0  0  0  0  0
   10.6560    0.0720   23.7350 C   0  0  0  0  0  0  0  0  0  0  0  0
    3.4434    2.5374   20.0688 C   0  0  0  0  0  0  0  0  0  0  0  0
   12.9840   -0.1200   23.1530 C   0  0  0  0  0  0  0  0  0  0  0  0
    5.1217    1.1107   21.0634 C   0  0  0  0  0  0  0  0  0  0  0  0
   11.3360   -1.5050   22.0650 C   0  0  0  0  0  0  0  0  0  0  0  0
    5.3512    0.7771   17.4011 C   0  0  0  0  0  0  0  0  0  0  0  0
    6.9505   -0.5831   18.3322 C   0  0  0  0  0  0  0  0  0  0  0  0
    4.9021    1.2140   18.6489 C   0  0  0  0  0  0  0  0  0  0  0  0
    5.5460    0.6944   19.7909 C   0  0  0  0  0  0  0  0  0  0  0  0
   10.3220   -0.8940   22.7910 C   0  0  0  0  0  0  0  0  0  0  0  0
    6.5902   -0.2221   19.6216 C   0  0  0  0  0  0  0  0  0  0  0  0
    4.0769    2.0264   21.1992 C   0  0  0  0  0  0  0  0  0  0  0  0
   12.6400   -1.1000   22.2390 C   0  0  0  0  0  0  0  0  0  0  0  0
    8.3880   -0.3240   21.3070 C   0  0  0  0  0  0  0  0  0  0  0  0
    4.3658    1.8588   23.5538 C   0  0  0  0  0  0  0  0  0  0  0  0
    8.8810   -1.1900   22.4510 C   0  0  0  0  0  0  0  0  0  0  0  0
    6.3576   -0.1069   17.2167 N   0  0  0  0  0  0  0  0  0  0  0  0
    7.2820   -0.7860   20.6970 N   0  0  0  0  0  0  0  0  0  0  0  0
    8.9170    0.7530   21.0260 O   0  0  0  0  0  0  0  0  0  0  0  0
    3.6750    2.4202   22.4391 O   0  0  0  0  0  0  0  0  0  0  0  0
   13.8840   -1.8490   21.2740 Cl  0  0  0  0  0  0  0  0  0  0  0  0
   12.2249    1.2198   24.6546 H   0  0  0  0  0  0  0  0  0  0  0  0
    3.3460    2.5441   17.9259 H   0  0  0  0  0  0  0  0  0  0  0  0
    9.8763    0.5350   24.3454 H   0  0  0  0  0  0  0  0  0  0  0  0
    2.6279    3.2480   20.1713 H   0  0  0  0  0  0  0  0  0  0  0  0
   14.0077    0.1988   23.2842 H   0  0  0  0  0  0  0  0  0  0  0  0
    5.5961    0.7309   21.9660 H   0  0  0  0  0  0  0  0  0  0  0  0
   11.0892   -2.3009   21.3624 H   0  0  0  0  0  0  0  0  0  0  0  0
    4.8980    1.1378   16.4817 H   0  0  0  0  0  0  0  0  0  0  0  0
    7.7540   -1.2904   18.1477 H   0  0  0  0  0  0  0  0  0  0  0  0
    3.9466    2.2565   24.4812 H   0  0  0  0  0  0  0  0  0  0  0  0
    5.4285    2.1051   23.4867 H   0  0  0  0  0  0  0  0  0  0  0  0
    4.2437    0.7731   23.5376 H   0  0  0  0  0  0  0  0  0  0  0  0
    8.7774   -2.2383   22.1732 H   0  0  0  0  0  0  0  0  0  0  0  0
    8.2557   -1.0153   23.3257 H   0  0  0  0  0  0  0  0  0  0  0  0
    6.8981   -1.6619   21.0675 H   0  0  0  0  0  0  0  0  0  0  0  0
  1  3  2  0  0  0  0
  1  5  1  0  0  0  0
  2  4  2  0  0  0  0
  2 10  1  0  0  0  0
  3 12  1  0  0  0  0
  4 14  1  0  0  0  0
  5 15  2  0  0  0  0
  6 11  1  0  0  0  0
  6 14  2  0  0  0  0
  7 12  2  0  0  0  0
  7 15  1  0  0  0  0
  8 10  1  0  0  0  0
  8 19  2  0  0  0  0
  9 13  2  0  0  0  0
  9 19  1  0  0  0  0
 10 11  2  0  0  0  0
 11 13  1  0  0  0  0
 12 18  1  0  0  0  0
 13 20  1  0  0  0  0
 14 22  1  0  0  0  0
 15 23  1  0  0  0  0
 16 18  1  0  0  0  0
 16 20  1  0  0  0  0
 16 21  2  0  0  0  0
 17 22  1  0  0  0  0
  1 24  1  0  0  0  0
  2 25  1  0  0  0  0
  3 26  1  0  0  0  0
  4 27  1  0  0  0  0
  5 28  1  0  0  0  0
  6 29  1  0  0  0  0
  7 30  1  0  0  0  0
  8 31  1  0  0  0  0
  9 32  1  0  0  0  0
 17 33  1  0  0  0  0
 17 34  1  0  0  0  0
 17 35  1  0  0  0  0
 18 36  1  0  0  0  0
 18 37  1  0  0  0  0
 20 38  1  0  0  0  0
M  END
> <compound>
EDJ-MED-00c1612e-1

> <compound_smiles>
COc1ccc2cncc(c2c1)NC(=O)Cc3cccc(c3)Cl

> <enantiomer_smiles>
COc1ccc2cncc(c2c1)NC(=O)Cc3cccc(c3)Cl

> <scaffold>
chlorobenzene-linker

> <canonical_CID>
EDJ-MED-00c1612e-1

> <r_inhibition_at_20_uM>

> <r_inhibition_at_50_uM>

> <r_avg_IC50>
0.549993865056918

> <f_inhibition_at_20_uM>

> <f_inhibition_at_50_uM>

> <f_avg_IC50>
0.897800405241959

> <f_avg_pIC50>

> <relative_solubility_at_20_uM>

> <relative_solubility_at_100_uM>

> <trypsin_IC50>

> <NMR_std_ratio>

> <acrylamide>
False

> <chloroacetamide>
False

> <series>
3-aminopyridine-like

> <frag_id>

> <clash_score>
0

> <docking_score>
-11.212129592895508

> <overlap_score>
1.0032833814620972

> <MMFF_internal_energy>
105.54617063953977

> <docked_smiles>
COc1ccc2cncc(c2c1)NC(=O)Cc3cccc(c3)Cl

$$$$
