EDJ-MED-c8e7a002-10_1
  -OEChem-07022116353D

 32 34  0     0  0  0  0  0  0999 V2000
   11.9780    0.4600   23.9150 C   0  0  0  0  0  0  0  0  0  0  0  0
    4.1815    0.0660   20.7788 C   0  0  0  0  0  0  0  0  0  0  0  0
   10.6560    0.0720   23.7350 C   0  0  0  0  0  0  0  0  0  0  0  0
    2.9002    0.5440   20.4767 C   0  0  0  0  0  0  0  0  0  0  0  0
   12.9840   -0.1200   23.1530 C   0  0  0  0  0  0  0  0  0  0  0  0
   11.3360   -1.5050   22.0650 C   0  0  0  0  0  0  0  0  0  0  0  0
    3.5980    1.1868   18.2344 C   0  0  0  0  0  0  0  0  0  0  0  0
    5.1793    0.1520   19.7935 C   0  0  0  0  0  0  0  0  0  0  0  0
   10.3220   -0.8940   22.7910 C   0  0  0  0  0  0  0  0  0  0  0  0
    4.8688    0.7047   18.5560 C   0  0  0  0  0  0  0  0  0  0  0  0
    2.6155    1.0944   19.2256 C   0  0  0  0  0  0  0  0  0  0  0  0
   12.6400   -1.1000   22.2390 C   0  0  0  0  0  0  0  0  0  0  0  0
    6.5430   -0.1968   19.6886 C   0  0  0  0  0  0  0  0  0  0  0  0
    8.3880   -0.3240   21.3070 C   0  0  0  0  0  0  0  0  0  0  0  0
    8.8810   -1.1900   22.4510 C   0  0  0  0  0  0  0  0  0  0  0  0
    7.0643    0.1025   18.4967 N   0  0  0  0  0  0  0  0  0  0  0  0
    6.0299    0.6457   17.8335 N   0  0  0  0  0  0  0  0  0  0  0  0
    7.2820   -0.7860   20.6970 N   0  0  0  0  0  0  0  0  0  0  0  0
    8.9170    0.7530   21.0260 O   0  0  0  0  0  0  0  0  0  0  0  0
    1.3788    1.5434   18.9692 F   0  0  0  0  0  0  0  0  0  0  0  0
   13.8840   -1.8490   21.2740 Cl  0  0  0  0  0  0  0  0  0  0  0  0
   12.2249    1.2198   24.6546 H   0  0  0  0  0  0  0  0  0  0  0  0
    4.3886   -0.3604   21.7556 H   0  0  0  0  0  0  0  0  0  0  0  0
    9.8763    0.5350   24.3454 H   0  0  0  0  0  0  0  0  0  0  0  0
    2.1173    0.4855   21.2283 H   0  0  0  0  0  0  0  0  0  0  0  0
   14.0077    0.1988   23.2842 H   0  0  0  0  0  0  0  0  0  0  0  0
   11.0892   -2.3009   21.3624 H   0  0  0  0  0  0  0  0  0  0  0  0
    3.3788    1.6149   17.2627 H   0  0  0  0  0  0  0  0  0  0  0  0
    8.7774   -2.2383   22.1732 H   0  0  0  0  0  0  0  0  0  0  0  0
    8.2557   -1.0153   23.3257 H   0  0  0  0  0  0  0  0  0  0  0  0
    6.1833    0.9591   16.8832 H   0  0  0  0  0  0  0  0  0  0  0  0
    6.9394   -1.7028   21.0258 H   0  0  0  0  0  0  0  0  0  0  0  0
  1  3  1  0  0  0  0
  1  5  2  0  0  0  0
  2  4  2  0  0  0  0
  2  8  1  0  0  0  0
  3  9  2  0  0  0  0
  4 11  1  0  0  0  0
  5 12  1  0  0  0  0
  6  9  1  0  0  0  0
  6 12  2  0  0  0  0
  7 10  1  0  0  0  0
  7 11  2  0  0  0  0
  8 10  2  0  0  0  0
  8 13  1  0  0  0  0
  9 15  1  0  0  0  0
 10 17  1  0  0  0  0
 11 20  1  0  0  0  0
 12 21  1  0  0  0  0
 13 16  2  0  0  0  0
 13 18  1  0  0  0  0
 14 15  1  0  0  0  0
 14 18  1  0  0  0  0
 14 19  2  0  0  0  0
 16 17  1  0  0  0  0
  1 22  1  0  0  0  0
  2 23  1  0  0  0  0
  3 24  1  0  0  0  0
  4 25  1  0  0  0  0
  5 26  1  0  0  0  0
  6 27  1  0  0  0  0
  7 28  1  0  0  0  0
 15 29  1  0  0  0  0
 15 30  1  0  0  0  0
 17 31  1  0  0  0  0
 18 32  1  0  0  0  0
M  END
> <compound>
EDJ-MED-c8e7a002-10

> <compound_smiles>
c1cc(cc(c1)Cl)CC(=O)Nc2c3ccc(cc3n[nH]2)F

> <enantiomer_smiles>
c1cc(cc(c1)Cl)CC(=O)Nc2c3ccc(cc3n[nH]2)F

> <scaffold>
chlorobenzene-linker

> <canonical_CID>
EDJ-MED-c8e7a002-10

> <r_inhibition_at_20_uM>

> <r_inhibition_at_50_uM>

> <r_avg_IC50>
91.4887190568217

> <f_inhibition_at_20_uM>

> <f_inhibition_at_50_uM>

> <f_avg_IC50>
99.5

> <f_avg_pIC50>

> <relative_solubility_at_20_uM>

> <relative_solubility_at_100_uM>

> <trypsin_IC50>

> <NMR_std_ratio>

> <acrylamide>
False

> <chloroacetamide>
False

> <series>
3-aminopyridine-like

> <frag_id>

> <clash_score>
0.620058793398787

> <docking_score>
-1.8190653324127197

> <overlap_score>
0.8674318194389343

> <MMFF_internal_energy>
42.88636001825783

> <docked_smiles>
c1cc(cc(c1)Cl)CC(=O)Nc2c3ccc(cc3[nH]n2)F

$$$$
