JAN-GHE-5a013bed-3_1
  -OEChem-07022116353D

 34 36  0     0  0  0  0  0  0999 V2000
    3.8719    3.2496   17.6879 C   0  0  0  0  0  0  0  0  0  0  0  0
    4.3669    2.8908   16.4351 C   0  0  0  0  0  0  0  0  0  0  0  0
   11.9780    0.4600   23.9150 C   0  0  0  0  0  0  0  0  0  0  0  0
    4.3337    2.6032   18.8335 C   0  0  0  0  0  0  0  0  0  0  0  0
   10.6560    0.0720   23.7350 C   0  0  0  0  0  0  0  0  0  0  0  0
    5.3270    1.8835   16.3225 C   0  0  0  0  0  0  0  0  0  0  0  0
   12.9840   -0.1200   23.1530 C   0  0  0  0  0  0  0  0  0  0  0  0
   11.3360   -1.5050   22.0650 C   0  0  0  0  0  0  0  0  0  0  0  0
    5.2952    1.5945   18.7169 C   0  0  0  0  0  0  0  0  0  0  0  0
   10.3220   -0.8940   22.7910 C   0  0  0  0  0  0  0  0  0  0  0  0
    5.8028    1.2234   17.4608 C   0  0  0  0  0  0  0  0  0  0  0  0
   12.6400   -1.1000   22.2390 C   0  0  0  0  0  0  0  0  0  0  0  0
    7.1891   -0.3757   18.3767 C   0  0  0  0  0  0  0  0  0  0  0  0
    5.7974    0.8961   19.9252 C   0  0  0  0  0  0  0  0  0  0  0  0
    8.3880   -0.3240   21.3070 C   0  0  0  0  0  0  0  0  0  0  0  0
    8.8810   -1.1900   22.4510 C   0  0  0  0  0  0  0  0  0  0  0  0
    6.7716    0.2128   17.3045 N   0  0  0  0  0  0  0  0  0  0  0  0
    6.7498   -0.0793   19.6477 N   0  0  0  0  0  0  0  0  0  0  0  0
    7.2820   -0.7860   20.6970 N   0  0  0  0  0  0  0  0  0  0  0  0
    5.3783    1.1910   21.0391 O   0  0  0  0  0  0  0  0  0  0  0  0
    8.9170    0.7530   21.0260 O   0  0  0  0  0  0  0  0  0  0  0  0
   13.8840   -1.8490   21.2740 Cl  0  0  0  0  0  0  0  0  0  0  0  0
    3.1252    4.0340   17.7714 H   0  0  0  0  0  0  0  0  0  0  0  0
    4.0052    3.3962   15.5442 H   0  0  0  0  0  0  0  0  0  0  0  0
   12.2249    1.2198   24.6546 H   0  0  0  0  0  0  0  0  0  0  0  0
    3.9359    2.8964   19.8008 H   0  0  0  0  0  0  0  0  0  0  0  0
    9.8763    0.5350   24.3454 H   0  0  0  0  0  0  0  0  0  0  0  0
    5.7025    1.6162   15.3376 H   0  0  0  0  0  0  0  0  0  0  0  0
   14.0077    0.1988   23.2842 H   0  0  0  0  0  0  0  0  0  0  0  0
   11.0892   -2.3008   21.3624 H   0  0  0  0  0  0  0  0  0  0  0  0
    7.9460   -1.1744   18.3252 H   0  0  0  0  0  0  0  0  0  0  0  0
    8.7519   -2.2472   22.1528 H   0  0  0  0  0  0  0  0  0  0  0  0
    8.2467   -1.0628   23.3486 H   0  0  0  0  0  0  0  0  0  0  0  0
    6.8442   -1.6507   21.0103 H   0  0  0  0  0  0  0  0  0  0  0  0
  1  2  1  0  0  0  0
  1  4  2  0  0  0  0
  2  6  2  0  0  0  0
  3  5  2  0  0  0  0
  3  7  1  0  0  0  0
  4  9  1  0  0  0  0
  5 10  1  0  0  0  0
  6 11  1  0  0  0  0
  7 12  2  0  0  0  0
  8 10  2  0  0  0  0
  8 12  1  0  0  0  0
  9 11  2  0  0  0  0
  9 14  1  0  0  0  0
 10 16  1  0  0  0  0
 11 17  1  0  0  0  0
 12 22  1  0  0  0  0
 13 17  2  0  0  0  0
 13 18  1  0  0  0  0
 14 18  1  0  0  0  0
 14 20  2  0  0  0  0
 15 16  1  0  0  0  0
 15 19  1  0  0  0  0
 15 21  2  0  0  0  0
 18 19  1  0  0  0  0
  1 23  1  0  0  0  0
  2 24  1  0  0  0  0
  3 25  1  0  0  0  0
  4 26  1  0  0  0  0
  5 27  1  0  0  0  0
  6 28  1  0  0  0  0
  7 29  1  0  0  0  0
  8 30  1  0  0  0  0
 13 31  1  0  0  0  0
 16 32  1  0  0  0  0
 16 33  1  0  0  0  0
 19 34  1  0  0  0  0
M  END
> <compound>
JAN-GHE-5a013bed-3

> <compound_smiles>
c1ccc2c(c1)c(=O)n(cn2)NC(=O)Cc3cccc(c3)Cl

> <enantiomer_smiles>
c1ccc2c(c1)c(=O)n(cn2)NC(=O)Cc3cccc(c3)Cl

> <scaffold>
chlorobenzene-linker

> <canonical_CID>
JAN-GHE-5a013bed-3

> <r_inhibition_at_20_uM>

> <r_inhibition_at_50_uM>

> <r_avg_IC50>
99.0

> <f_inhibition_at_20_uM>

> <f_inhibition_at_50_uM>

> <f_avg_IC50>
8.64546417390745

> <f_avg_pIC50>

> <relative_solubility_at_20_uM>

> <relative_solubility_at_100_uM>

> <trypsin_IC50>
99.0

> <NMR_std_ratio>

> <acrylamide>
False

> <chloroacetamide>
False

> <series>
3-aminopyridine-like

> <frag_id>

> <clash_score>
1.8864841449062597

> <docking_score>
-7.357097625732422

> <overlap_score>
0.8999114632606506

> <MMFF_internal_energy>
66.96375840042336

> <docked_smiles>
c1ccc2c(c1)c(=O)n(cn2)NC(=O)Cc3cccc(c3)Cl

$$$$
