JAN-GHE-5a013bed-11_1
  -OEChem-07022116353D

 23 24  0     0  0  0  0  0  0999 V2000
   11.9780    0.4600   23.9150 C   0  0  0  0  0  0  0  0  0  0  0  0
   10.6560    0.0720   23.7350 C   0  0  0  0  0  0  0  0  0  0  0  0
   12.9840   -0.1200   23.1530 C   0  0  0  0  0  0  0  0  0  0  0  0
   11.3360   -1.5050   22.0650 C   0  0  0  0  0  0  0  0  0  0  0  0
   10.3220   -0.8940   22.7910 C   0  0  0  0  0  0  0  0  0  0  0  0
   12.6400   -1.1000   22.2390 C   0  0  0  0  0  0  0  0  0  0  0  0
    6.5418   -0.1622   19.6645 C   0  0  0  0  0  0  0  0  0  0  0  0
    8.3880   -0.3240   21.3070 C   0  0  0  0  0  0  0  0  0  0  0  0
    8.8810   -1.1900   22.4510 C   0  0  0  0  0  0  0  0  0  0  0  0
    5.9177    1.2496   18.2016 N   0  5  0  0  0  0  0  0  0  0  0  0
    6.8732    1.0330   19.1401 N   0  0  0  0  0  0  0  0  0  0  0  0
    5.4404   -0.7084   19.1151 N   0  0  0  0  0  0  0  0  0  0  0  0
    5.0569    0.2034   18.1866 N   0  0  0  0  0  0  0  0  0  0  0  0
    7.2820   -0.7860   20.6970 N   0  0  0  0  0  0  0  0  0  0  0  0
    8.9170    0.7530   21.0260 O   0  0  0  0  0  0  0  0  0  0  0  0
   13.8840   -1.8490   21.2740 Cl  0  0  0  0  0  0  0  0  0  0  0  0
   12.2249    1.2198   24.6546 H   0  0  0  0  0  0  0  0  0  0  0  0
    9.8763    0.5350   24.3454 H   0  0  0  0  0  0  0  0  0  0  0  0
   14.0077    0.1988   23.2842 H   0  0  0  0  0  0  0  0  0  0  0  0
   11.0892   -2.3009   21.3624 H   0  0  0  0  0  0  0  0  0  0  0  0
    8.7709   -2.2387   22.1706 H   0  0  0  0  0  0  0  0  0  0  0  0
    8.2491   -1.0157   23.3232 H   0  0  0  0  0  0  0  0  0  0  0  0
    6.9372   -1.6894   21.0149 H   0  0  0  0  0  0  0  0  0  0  0  0
  1  2  1  0  0  0  0
  1  3  2  0  0  0  0
  2  5  2  0  0  0  0
  3  6  1  0  0  0  0
  4  5  1  0  0  0  0
  4  6  2  0  0  0  0
  5  9  1  0  0  0  0
  6 16  1  0  0  0  0
  7 11  2  0  0  0  0
  7 12  1  0  0  0  0
  7 14  1  0  0  0  0
  8  9  1  0  0  0  0
  8 14  1  0  0  0  0
  8 15  2  0  0  0  0
 10 11  1  0  0  0  0
 10 13  1  0  0  0  0
 12 13  2  0  0  0  0
  1 17  1  0  0  0  0
  2 18  1  0  0  0  0
  3 19  1  0  0  0  0
  4 20  1  0  0  0  0
  9 21  1  0  0  0  0
  9 22  1  0  0  0  0
 14 23  1  0  0  0  0
M  CHG  1  10  -1
M  END
> <compound>
JAN-GHE-5a013bed-11

> <compound_smiles>
c1cc(cc(c1)Cl)CC(=O)Nc2[nH]nnn2

> <enantiomer_smiles>
c1cc(cc(c1)Cl)CC(=O)Nc2[nH]nnn2

> <scaffold>
chlorobenzene-linker

> <canonical_CID>
JAN-GHE-5a013bed-11

> <r_inhibition_at_20_uM>

> <r_inhibition_at_50_uM>

> <r_avg_IC50>

> <f_inhibition_at_20_uM>

> <f_inhibition_at_50_uM>

> <f_avg_IC50>
45.2867094312226

> <f_avg_pIC50>

> <relative_solubility_at_20_uM>

> <relative_solubility_at_100_uM>

> <trypsin_IC50>
99.0

> <NMR_std_ratio>

> <acrylamide>
False

> <chloroacetamide>
False

> <series>
3-aminopyridine-like

> <frag_id>

> <clash_score>
0

> <docking_score>
-5.4658589363098145

> <overlap_score>
0.73675137758255

> <MMFF_internal_energy>
-27.58957270037629

> <docked_smiles>
c1cc(cc(c1)Cl)CC(=O)Nc2n[n-]nn2

$$$$
