JIN-POS-6dc588a4-6_1
  -OEChem-07022116353D

 41 42  0     0  0  0  0  0  0999 V2000
   11.9780    0.4600   23.9150 C   0  0  0  0  0  0  0  0  0  0  0  0
   10.6560    0.0720   23.7350 C   0  0  0  0  0  0  0  0  0  0  0  0
   12.9840   -0.1200   23.1530 C   0  0  0  0  0  0  0  0  0  0  0  0
    4.6059    0.7094   18.6371 C   0  0  0  0  0  0  0  0  0  0  0  0
   11.3360   -1.5050   22.0650 C   0  0  0  0  0  0  0  0  0  0  0  0
    5.3270    0.8635   17.4641 C   0  0  0  0  0  0  0  0  0  0  0  0
    7.2224   -0.0294   18.4067 C   0  0  0  0  0  0  0  0  0  0  0  0
   10.3220   -0.8940   22.7910 C   0  0  0  0  0  0  0  0  0  0  0  0
    6.5902   -0.2251   19.6240 C   0  0  0  0  0  0  0  0  0  0  0  0
    5.2569    0.1540   19.7330 C   0  0  0  0  0  0  0  0  0  0  0  0
   12.6400   -1.1000   22.2390 C   0  0  0  0  0  0  0  0  0  0  0  0
    8.3880   -0.3240   21.3070 C   0  0  0  0  0  0  0  0  0  0  0  0
    4.7578    2.3792   21.0384 C   0  0  0  0  0  0  0  0  0  0  0  0
    3.3036    1.0684   22.6121 C   0  0  0  0  0  0  0  0  0  0  0  0
    5.8031    0.8759   22.7653 C   0  0  0  0  0  0  0  0  0  0  0  0
    8.8810   -1.1900   22.4510 C   0  0  0  0  0  0  0  0  0  0  0  0
    4.6138    1.0787   21.8276 C   0  0  0  0  0  0  0  0  0  0  0  0
    6.6231    0.5071   17.3201 N   0  0  0  0  0  0  0  0  0  0  0  0
    7.2820   -0.7860   20.6970 N   0  0  0  0  0  0  0  0  0  0  0  0
    8.9170    0.7530   21.0260 O   0  0  0  0  0  0  0  0  0  0  0  0
    4.5714   -0.0105   20.9049 O   0  0  0  0  0  0  0  0  0  0  0  0
   13.8840   -1.8490   21.2740 Cl  0  0  0  0  0  0  0  0  0  0  0  0
   12.2249    1.2198   24.6546 H   0  0  0  0  0  0  0  0  0  0  0  0
    9.8763    0.5350   24.3454 H   0  0  0  0  0  0  0  0  0  0  0  0
   14.0077    0.1988   23.2842 H   0  0  0  0  0  0  0  0  0  0  0  0
    3.5668    1.0142   18.6930 H   0  0  0  0  0  0  0  0  0  0  0  0
   11.0892   -2.3009   21.3624 H   0  0  0  0  0  0  0  0  0  0  0  0
    4.8654    1.2916   16.5804 H   0  0  0  0  0  0  0  0  0  0  0  0
    8.2626   -0.3045   18.2597 H   0  0  0  0  0  0  0  0  0  0  0  0
    5.6970    2.3905   20.4739 H   0  0  0  0  0  0  0  0  0  0  0  0
    3.9288    2.5193   20.3370 H   0  0  0  0  0  0  0  0  0  0  0  0
    4.7913    3.2434   21.7116 H   0  0  0  0  0  0  0  0  0  0  0  0
    3.1961    0.1370   23.1798 H   0  0  0  0  0  0  0  0  0  0  0  0
    2.4430    1.1183   21.9352 H   0  0  0  0  0  0  0  0  0  0  0  0
    3.2444    1.9091   23.3108 H   0  0  0  0  0  0  0  0  0  0  0  0
    5.7001   -0.0569   23.3314 H   0  0  0  0  0  0  0  0  0  0  0  0
    6.7493    0.8437   22.2154 H   0  0  0  0  0  0  0  0  0  0  0  0
    5.8577    1.6824   23.5054 H   0  0  0  0  0  0  0  0  0  0  0  0
    8.7774   -2.2383   22.1732 H   0  0  0  0  0  0  0  0  0  0  0  0
    8.2557   -1.0153   23.3257 H   0  0  0  0  0  0  0  0  0  0  0  0
    6.8983   -1.6631   21.0685 H   0  0  0  0  0  0  0  0  0  0  0  0
  1  2  2  0  0  0  0
  1  3  1  0  0  0  0
  2  8  1  0  0  0  0
  3 11  2  0  0  0  0
  4  6  2  0  0  0  0
  4 10  1  0  0  0  0
  5  8  2  0  0  0  0
  5 11  1  0  0  0  0
  6 18  1  0  0  0  0
  7  9  1  0  0  0  0
  7 18  2  0  0  0  0
  8 16  1  0  0  0  0
  9 10  2  0  0  0  0
  9 19  1  0  0  0  0
 10 21  1  0  0  0  0
 11 22  1  0  0  0  0
 12 16  1  0  0  0  0
 12 19  1  0  0  0  0
 12 20  2  0  0  0  0
 13 17  1  0  0  0  0
 14 17  1  0  0  0  0
 15 17  1  0  0  0  0
 17 21  1  0  0  0  0
  1 23  1  0  0  0  0
  2 24  1  0  0  0  0
  3 25  1  0  0  0  0
  4 26  1  0  0  0  0
  5 27  1  0  0  0  0
  6 28  1  0  0  0  0
  7 29  1  0  0  0  0
 13 30  1  0  0  0  0
 13 31  1  0  0  0  0
 13 32  1  0  0  0  0
 14 33  1  0  0  0  0
 14 34  1  0  0  0  0
 14 35  1  0  0  0  0
 15 36  1  0  0  0  0
 15 37  1  0  0  0  0
 15 38  1  0  0  0  0
 16 39  1  0  0  0  0
 16 40  1  0  0  0  0
 19 41  1  0  0  0  0
M  END
> <compound>
JIN-POS-6dc588a4-6

> <compound_smiles>
CC(C)(C)Oc1ccncc1NC(=O)Cc2cccc(c2)Cl

> <enantiomer_smiles>
CC(C)(C)Oc1ccncc1NC(=O)Cc2cccc(c2)Cl

> <scaffold>
chlorobenzene-linker

> <canonical_CID>
JIN-POS-6dc588a4-6

> <r_inhibition_at_20_uM>

> <r_inhibition_at_50_uM>

> <r_avg_IC50>

> <f_inhibition_at_20_uM>

> <f_inhibition_at_50_uM>

> <f_avg_IC50>
22.9226567408969

> <f_avg_pIC50>

> <relative_solubility_at_20_uM>

> <relative_solubility_at_100_uM>

> <trypsin_IC50>

> <NMR_std_ratio>

> <acrylamide>
False

> <chloroacetamide>
False

> <series>
3-aminopyridine-like

> <frag_id>

> <clash_score>
0

> <docking_score>
-9.835794448852539

> <overlap_score>
0.929413914680481

> <MMFF_internal_energy>
102.92404592966518

> <docked_smiles>
CC(C)(C)Oc1ccncc1NC(=O)Cc2cccc(c2)Cl

$$$$
