JIN-POS-6dc588a4-11_1
  -OEChem-07022116353D

 34 36  0     0  0  0  0  0  0999 V2000
   11.9780    0.4600   23.9150 C   0  0  0  0  0  0  0  0  0  0  0  0
    5.1223    1.1109   21.0637 C   0  0  0  0  0  0  0  0  0  0  0  0
   10.6560    0.0720   23.7350 C   0  0  0  0  0  0  0  0  0  0  0  0
    4.0777    2.0269   21.1998 C   0  0  0  0  0  0  0  0  0  0  0  0
   12.9840   -0.1200   23.1530 C   0  0  0  0  0  0  0  0  0  0  0  0
    3.8526    2.1361   18.7981 C   0  0  0  0  0  0  0  0  0  0  0  0
   11.3360   -1.5050   22.0650 C   0  0  0  0  0  0  0  0  0  0  0  0
    5.3514    0.7780   17.4014 C   0  0  0  0  0  0  0  0  0  0  0  0
    6.9503   -0.5830   18.3322 C   0  0  0  0  0  0  0  0  0  0  0  0
    5.5463    0.6947   19.7911 C   0  0  0  0  0  0  0  0  0  0  0  0
    4.9025    1.2148   18.6493 C   0  0  0  0  0  0  0  0  0  0  0  0
   10.3220   -0.8940   22.7910 C   0  0  0  0  0  0  0  0  0  0  0  0
    6.5902   -0.2221   19.6216 C   0  0  0  0  0  0  0  0  0  0  0  0
    3.4443    2.5384   20.0696 C   0  0  0  0  0  0  0  0  0  0  0  0
   12.6400   -1.1000   22.2390 C   0  0  0  0  0  0  0  0  0  0  0  0
    8.3880   -0.3240   21.3070 C   0  0  0  0  0  0  0  0  0  0  0  0
    8.8810   -1.1900   22.4510 C   0  0  0  0  0  0  0  0  0  0  0  0
    6.3575   -0.1063   17.2168 N   0  0  0  0  0  0  0  0  0  0  0  0
    7.2820   -0.7860   20.6970 N   0  0  0  0  0  0  0  0  0  0  0  0
    8.9170    0.7530   21.0260 O   0  0  0  0  0  0  0  0  0  0  0  0
    2.4419    3.4168   20.2034 F   0  0  0  0  0  0  0  0  0  0  0  0
   13.8840   -1.8490   21.2740 Cl  0  0  0  0  0  0  0  0  0  0  0  0
   12.2249    1.2198   24.6546 H   0  0  0  0  0  0  0  0  0  0  0  0
    5.5919    0.7340   21.9693 H   0  0  0  0  0  0  0  0  0  0  0  0
    9.8763    0.5350   24.3454 H   0  0  0  0  0  0  0  0  0  0  0  0
    3.7584    2.3414   22.1892 H   0  0  0  0  0  0  0  0  0  0  0  0
   14.0077    0.1988   23.2842 H   0  0  0  0  0  0  0  0  0  0  0  0
    3.3475    2.5458   17.9265 H   0  0  0  0  0  0  0  0  0  0  0  0
   11.0892   -2.3009   21.3624 H   0  0  0  0  0  0  0  0  0  0  0  0
    4.8987    1.1390   16.4819 H   0  0  0  0  0  0  0  0  0  0  0  0
    7.7536   -1.2904   18.1478 H   0  0  0  0  0  0  0  0  0  0  0  0
    8.7774   -2.2383   22.1732 H   0  0  0  0  0  0  0  0  0  0  0  0
    8.2557   -1.0153   23.3257 H   0  0  0  0  0  0  0  0  0  0  0  0
    6.8981   -1.6619   21.0675 H   0  0  0  0  0  0  0  0  0  0  0  0
  1  3  1  0  0  0  0
  1  5  2  0  0  0  0
  2  4  2  0  0  0  0
  2 10  1  0  0  0  0
  3 12  2  0  0  0  0
  4 14  1  0  0  0  0
  5 15  1  0  0  0  0
  6 11  1  0  0  0  0
  6 14  2  0  0  0  0
  7 12  1  0  0  0  0
  7 15  2  0  0  0  0
  8 11  2  0  0  0  0
  8 18  1  0  0  0  0
  9 13  1  0  0  0  0
  9 18  2  0  0  0  0
 10 11  1  0  0  0  0
 10 13  2  0  0  0  0
 12 17  1  0  0  0  0
 13 19  1  0  0  0  0
 14 21  1  0  0  0  0
 15 22  1  0  0  0  0
 16 17  1  0  0  0  0
 16 19  1  0  0  0  0
 16 20  2  0  0  0  0
  1 23  1  0  0  0  0
  2 24  1  0  0  0  0
  3 25  1  0  0  0  0
  4 26  1  0  0  0  0
  5 27  1  0  0  0  0
  6 28  1  0  0  0  0
  7 29  1  0  0  0  0
  8 30  1  0  0  0  0
  9 31  1  0  0  0  0
 17 32  1  0  0  0  0
 17 33  1  0  0  0  0
 19 34  1  0  0  0  0
M  END
> <compound>
JIN-POS-6dc588a4-11

> <compound_smiles>
c1cc(cc(c1)Cl)CC(=O)Nc2cncc3c2ccc(c3)F

> <enantiomer_smiles>
c1cc(cc(c1)Cl)CC(=O)Nc2cncc3c2ccc(c3)F

> <scaffold>
chlorobenzene-linker

> <canonical_CID>
JIN-POS-6dc588a4-11

> <r_inhibition_at_20_uM>

> <r_inhibition_at_50_uM>

> <r_avg_IC50>

> <f_inhibition_at_20_uM>

> <f_inhibition_at_50_uM>

> <f_avg_IC50>
1.46738083505272

> <f_avg_pIC50>

> <relative_solubility_at_20_uM>

> <relative_solubility_at_100_uM>

> <trypsin_IC50>

> <NMR_std_ratio>

> <acrylamide>
False

> <chloroacetamide>
False

> <series>
3-aminopyridine-like

> <frag_id>

> <clash_score>
0

> <docking_score>
-11.390922546386719

> <overlap_score>
0.9946836829185486

> <MMFF_internal_energy>
92.82819932919219

> <docked_smiles>
c1cc(cc(c1)Cl)CC(=O)Nc2cncc3c2ccc(c3)F

$$$$
