MAT-POS-bb423b95-9_1
  -OEChem-07022116353D

 34 36  0     0  0  0  0  0  0999 V2000
    5.5319    3.1318   20.8435 C   0  0  0  0  0  0  0  0  0  0  0  0
   11.9780    0.4600   23.9150 C   0  0  0  0  0  0  0  0  0  0  0  0
    6.1104    1.8616   20.8215 C   0  0  0  0  0  0  0  0  0  0  0  0
   10.6560    0.0720   23.7350 C   0  0  0  0  0  0  0  0  0  0  0  0
    4.8581    3.6129   19.7233 C   0  0  0  0  0  0  0  0  0  0  0  0
   12.9840   -0.1200   23.1530 C   0  0  0  0  0  0  0  0  0  0  0  0
   11.3360   -1.5050   22.0650 C   0  0  0  0  0  0  0  0  0  0  0  0
    5.2700    0.7168   17.4216 C   0  0  0  0  0  0  0  0  0  0  0  0
    6.4588   -0.9561   18.4526 C   0  0  0  0  0  0  0  0  0  0  0  0
    6.0210    1.0556   19.6748 C   0  0  0  0  0  0  0  0  0  0  0  0
    5.3381    1.5462   18.5428 C   0  0  0  0  0  0  0  0  0  0  0  0
   10.3220   -0.8940   22.7910 C   0  0  0  0  0  0  0  0  0  0  0  0
    6.5902   -0.2220   19.6215 C   0  0  0  0  0  0  0  0  0  0  0  0
   12.6400   -1.1000   22.2390 C   0  0  0  0  0  0  0  0  0  0  0  0
    4.7598    2.8260   18.5761 C   0  0  0  0  0  0  0  0  0  0  0  0
    8.3880   -0.3240   21.3070 C   0  0  0  0  0  0  0  0  0  0  0  0
    8.8810   -1.1900   22.4510 C   0  0  0  0  0  0  0  0  0  0  0  0
    5.8130   -0.5195   17.3504 N   0  0  0  0  0  0  0  0  0  0  0  0
    7.2820   -0.7860   20.6970 N   0  0  0  0  0  0  0  0  0  0  0  0
    8.9170    0.7530   21.0260 O   0  0  0  0  0  0  0  0  0  0  0  0
   13.8840   -1.8490   21.2740 Cl  0  0  0  0  0  0  0  0  0  0  0  0
    3.9042    3.5078   17.2320 Cl  0  0  0  0  0  0  0  0  0  0  0  0
    5.6080    3.7463   21.7360 H   0  0  0  0  0  0  0  0  0  0  0  0
   12.2249    1.2198   24.6546 H   0  0  0  0  0  0  0  0  0  0  0  0
    6.6281    1.5211   21.7152 H   0  0  0  0  0  0  0  0  0  0  0  0
    9.8763    0.5350   24.3454 H   0  0  0  0  0  0  0  0  0  0  0  0
    4.4155    4.6052   19.7624 H   0  0  0  0  0  0  0  0  0  0  0  0
   14.0077    0.1988   23.2842 H   0  0  0  0  0  0  0  0  0  0  0  0
   11.0892   -2.3009   21.3624 H   0  0  0  0  0  0  0  0  0  0  0  0
    4.7657    1.0109   16.5065 H   0  0  0  0  0  0  0  0  0  0  0  0
    6.8828   -1.9521   18.3615 H   0  0  0  0  0  0  0  0  0  0  0  0
    8.7774   -2.2383   22.1732 H   0  0  0  0  0  0  0  0  0  0  0  0
    8.2557   -1.0153   23.3257 H   0  0  0  0  0  0  0  0  0  0  0  0
    6.8981   -1.6619   21.0674 H   0  0  0  0  0  0  0  0  0  0  0  0
  1  3  2  0  0  0  0
  1  5  1  0  0  0  0
  2  4  1  0  0  0  0
  2  6  2  0  0  0  0
  3 10  1  0  0  0  0
  4 12  2  0  0  0  0
  5 15  2  0  0  0  0
  6 14  1  0  0  0  0
  7 12  1  0  0  0  0
  7 14  2  0  0  0  0
  8 11  2  0  0  0  0
  8 18  1  0  0  0  0
  9 13  1  0  0  0  0
  9 18  2  0  0  0  0
 10 11  1  0  0  0  0
 10 13  2  0  0  0  0
 11 15  1  0  0  0  0
 12 17  1  0  0  0  0
 13 19  1  0  0  0  0
 14 21  1  0  0  0  0
 15 22  1  0  0  0  0
 16 17  1  0  0  0  0
 16 19  1  0  0  0  0
 16 20  2  0  0  0  0
  1 23  1  0  0  0  0
  2 24  1  0  0  0  0
  3 25  1  0  0  0  0
  4 26  1  0  0  0  0
  5 27  1  0  0  0  0
  6 28  1  0  0  0  0
  7 29  1  0  0  0  0
  8 30  1  0  0  0  0
  9 31  1  0  0  0  0
 17 32  1  0  0  0  0
 17 33  1  0  0  0  0
 19 34  1  0  0  0  0
M  END
> <compound>
MAT-POS-bb423b95-9

> <compound_smiles>
c1cc(cc(c1)Cl)CC(=O)Nc2cncc3c2cccc3Cl

> <enantiomer_smiles>
c1cc(cc(c1)Cl)CC(=O)Nc2cncc3c2cccc3Cl

> <scaffold>
chlorobenzene-linker

> <canonical_CID>
MAT-POS-bb423b95-9

> <r_inhibition_at_20_uM>

> <r_inhibition_at_50_uM>

> <r_avg_IC50>
99.0

> <f_inhibition_at_20_uM>

> <f_inhibition_at_50_uM>

> <f_avg_IC50>
99.5

> <f_avg_pIC50>

> <relative_solubility_at_20_uM>

> <relative_solubility_at_100_uM>

> <trypsin_IC50>

> <NMR_std_ratio>

> <acrylamide>
False

> <chloroacetamide>
False

> <series>
3-aminopyridine-like

> <frag_id>

> <clash_score>
1.3697691020451166

> <docking_score>
-4.419073104858398

> <overlap_score>
0.8428418636322021

> <MMFF_internal_energy>
95.92964805009669

> <docked_smiles>
c1cc(cc(c1)Cl)CC(=O)Nc2cncc3c2cccc3Cl

$$$$
