MAT-POS-4211dce8-1_1
  -OEChem-07022116353D

 38 40  0     0  0  0  0  0  0999 V2000
    4.1745    2.1975   21.2885 C   0  0  0  0  0  0  0  0  0  0  0  0
    3.6077    2.8023   20.1718 C   0  0  0  0  0  0  0  0  0  0  0  0
   11.9780    0.4600   23.9150 C   0  0  0  0  0  0  0  0  0  0  0  0
    5.1756    1.2342   21.1349 C   0  0  0  0  0  0  0  0  0  0  0  0
    4.0394    2.4463   18.8969 C   0  0  0  0  0  0  0  0  0  0  0  0
   10.6560    0.0720   23.7350 C   0  0  0  0  0  0  0  0  0  0  0  0
   12.9840   -0.1200   23.1530 C   0  0  0  0  0  0  0  0  0  0  0  0
   11.3360   -1.5050   22.0650 C   0  0  0  0  0  0  0  0  0  0  0  0
    5.6280    0.8584   19.8595 C   0  0  0  0  0  0  0  0  0  0  0  0
    5.0437    1.4800   18.7403 C   0  0  0  0  0  0  0  0  0  0  0  0
   10.3220   -0.8940   22.7910 C   0  0  0  0  0  0  0  0  0  0  0  0
   12.6400   -1.1000   22.2390 C   0  0  0  0  0  0  0  0  0  0  0  0
    7.0475   -0.4462   18.3900 C   0  0  0  0  0  0  0  0  0  0  0  0
    6.6808   -0.1519   19.6452 C   0  0  0  0  0  0  0  0  0  0  0  0
    5.4870    1.1173   17.3652 C   0  0  0  0  0  0  0  0  0  0  0  0
    8.3880   -0.3240   21.3070 C   0  0  0  0  0  0  0  0  0  0  0  0
    6.9909   -0.2728   15.9693 C   0  0  0  0  0  0  0  0  0  0  0  0
    8.8810   -1.1900   22.4510 C   0  0  0  0  0  0  0  0  0  0  0  0
    6.4913    0.1477   17.2745 N   0  0  0  0  0  0  0  0  0  0  0  0
    7.2820   -0.7860   20.6970 N   0  0  0  0  0  0  0  0  0  0  0  0
    4.9628    1.6717   16.4019 O   0  0  0  0  0  0  0  0  0  0  0  0
    8.9170    0.7530   21.0260 O   0  0  0  0  0  0  0  0  0  0  0  0
   13.8840   -1.8490   21.2740 Cl  0  0  0  0  0  0  0  0  0  0  0  0
    3.8386    2.4752   22.2836 H   0  0  0  0  0  0  0  0  0  0  0  0
    2.8304    3.5508   20.2941 H   0  0  0  0  0  0  0  0  0  0  0  0
   12.2249    1.2198   24.6546 H   0  0  0  0  0  0  0  0  0  0  0  0
    5.5863    0.7925   22.0384 H   0  0  0  0  0  0  0  0  0  0  0  0
    3.5824    2.9319   18.0390 H   0  0  0  0  0  0  0  0  0  0  0  0
    9.8763    0.5350   24.3454 H   0  0  0  0  0  0  0  0  0  0  0  0
   14.0077    0.1988   23.2842 H   0  0  0  0  0  0  0  0  0  0  0  0
   11.0892   -2.3009   21.3624 H   0  0  0  0  0  0  0  0  0  0  0  0
    7.8189   -1.1844   18.1885 H   0  0  0  0  0  0  0  0  0  0  0  0
    6.3953   -1.1226   15.6045 H   0  0  0  0  0  0  0  0  0  0  0  0
    6.9100    0.5632   15.2590 H   0  0  0  0  0  0  0  0  0  0  0  0
    8.0444   -0.5759   16.0603 H   0  0  0  0  0  0  0  0  0  0  0  0
    8.2535   -1.0146   23.3240 H   0  0  0  0  0  0  0  0  0  0  0  0
    8.7756   -2.2377   22.1724 H   0  0  0  0  0  0  0  0  0  0  0  0
    6.8580   -1.6463   21.0202 H   0  0  0  0  0  0  0  0  0  0  0  0
  1  2  1  0  0  0  0
  1  4  2  0  0  0  0
  2  5  2  0  0  0  0
  3  6  2  0  0  0  0
  3  7  1  0  0  0  0
  4  9  1  0  0  0  0
  5 10  1  0  0  0  0
  6 11  1  0  0  0  0
  7 12  2  0  0  0  0
  8 11  2  0  0  0  0
  8 12  1  0  0  0  0
  9 10  2  0  0  0  0
  9 14  1  0  0  0  0
 10 15  1  0  0  0  0
 11 18  1  0  0  0  0
 12 23  1  0  0  0  0
 13 14  2  0  0  0  0
 13 19  1  0  0  0  0
 14 20  1  0  0  0  0
 15 19  1  0  0  0  0
 15 21  2  0  0  0  0
 16 18  1  0  0  0  0
 16 20  1  0  0  0  0
 16 22  2  0  0  0  0
 17 19  1  0  0  0  0
  1 24  1  0  0  0  0
  2 25  1  0  0  0  0
  3 26  1  0  0  0  0
  4 27  1  0  0  0  0
  5 28  1  0  0  0  0
  6 29  1  0  0  0  0
  7 30  1  0  0  0  0
  8 31  1  0  0  0  0
 13 32  1  0  0  0  0
 17 33  1  0  0  0  0
 17 34  1  0  0  0  0
 17 35  1  0  0  0  0
 18 36  1  0  0  0  0
 18 37  1  0  0  0  0
 20 38  1  0  0  0  0
M  END
> <compound>
MAT-POS-4211dce8-1

> <compound_smiles>
Cn1cc(c2ccccc2c1=O)NC(=O)Cc3cccc(c3)Cl

> <enantiomer_smiles>
Cn1cc(c2ccccc2c1=O)NC(=O)Cc3cccc(c3)Cl

> <scaffold>
chlorobenzene-linker

> <canonical_CID>
MAT-POS-4211dce8-1

> <r_inhibition_at_20_uM>

> <r_inhibition_at_50_uM>

> <r_avg_IC50>
99.0

> <f_inhibition_at_20_uM>

> <f_inhibition_at_50_uM>

> <f_avg_IC50>
99.5

> <f_avg_pIC50>

> <relative_solubility_at_20_uM>

> <relative_solubility_at_100_uM>

> <trypsin_IC50>

> <NMR_std_ratio>

> <acrylamide>
False

> <chloroacetamide>
False

> <series>
3-aminopyridine-like

> <frag_id>

> <clash_score>
0.8125893451280499

> <docking_score>
-7.155993938446045

> <overlap_score>
0.9906643629074097

> <MMFF_internal_energy>
88.64688462586412

> <docked_smiles>
Cn1cc(c2ccccc2c1=O)NC(=O)Cc3cccc(c3)Cl

$$$$
