MAT-POS-bb423b95-2_1
  -OEChem-07022116353D

 33 35  0     0  0  0  0  0  0999 V2000
   11.9780    0.4600   23.9150 C   0  0  0  0  0  0  0  0  0  0  0  0
    2.6092    0.9280   19.9006 C   0  0  0  0  0  0  0  0  0  0  0  0
    3.2923    1.1011   18.7061 C   0  0  0  0  0  0  0  0  0  0  0  0
   10.6560    0.0720   23.7350 C   0  0  0  0  0  0  0  0  0  0  0  0
   12.9840   -0.1200   23.1530 C   0  0  0  0  0  0  0  0  0  0  0  0
   11.3360   -1.5050   22.0650 C   0  0  0  0  0  0  0  0  0  0  0  0
    3.3018    0.3704   20.9577 C   0  0  0  0  0  0  0  0  0  0  0  0
    5.3831    0.8587   17.4379 C   0  0  0  0  0  0  0  0  0  0  0  0
    7.2480   -0.0367   18.4135 C   0  0  0  0  0  0  0  0  0  0  0  0
    4.6359    0.7135   18.6093 C   0  0  0  0  0  0  0  0  0  0  0  0
   10.3220   -0.8940   22.7910 C   0  0  0  0  0  0  0  0  0  0  0  0
    5.2592    0.1543   19.7388 C   0  0  0  0  0  0  0  0  0  0  0  0
    6.5902   -0.2225   19.6219 C   0  0  0  0  0  0  0  0  0  0  0  0
   12.6400   -1.1000   22.2390 C   0  0  0  0  0  0  0  0  0  0  0  0
    8.3880   -0.3240   21.3070 C   0  0  0  0  0  0  0  0  0  0  0  0
    8.8810   -1.1900   22.4510 C   0  0  0  0  0  0  0  0  0  0  0  0
    6.6769    0.4961   17.3148 N   0  0  0  0  0  0  0  0  0  0  0  0
    4.5981   -0.0152   20.8998 N   0  0  0  0  0  0  0  0  0  0  0  0
    7.2820   -0.7860   20.6970 N   0  0  0  0  0  0  0  0  0  0  0  0
    8.9170    0.7530   21.0260 O   0  0  0  0  0  0  0  0  0  0  0  0
   13.8840   -1.8490   21.2740 Cl  0  0  0  0  0  0  0  0  0  0  0  0
   12.2249    1.2198   24.6546 H   0  0  0  0  0  0  0  0  0  0  0  0
    1.5704    1.2199   20.0004 H   0  0  0  0  0  0  0  0  0  0  0  0
    2.7757    1.5363   17.8545 H   0  0  0  0  0  0  0  0  0  0  0  0
    9.8763    0.5350   24.3454 H   0  0  0  0  0  0  0  0  0  0  0  0
   14.0077    0.1988   23.2842 H   0  0  0  0  0  0  0  0  0  0  0  0
   11.0892   -2.3008   21.3624 H   0  0  0  0  0  0  0  0  0  0  0  0
    2.8179    0.2104   21.9160 H   0  0  0  0  0  0  0  0  0  0  0  0
    4.9469    1.2850   16.5388 H   0  0  0  0  0  0  0  0  0  0  0  0
    8.2891   -0.3207   18.2891 H   0  0  0  0  0  0  0  0  0  0  0  0
    8.7774   -2.2383   22.1732 H   0  0  0  0  0  0  0  0  0  0  0  0
    8.2557   -1.0153   23.3257 H   0  0  0  0  0  0  0  0  0  0  0  0
    6.8982   -1.6621   21.0676 H   0  0  0  0  0  0  0  0  0  0  0  0
  1  4  1  0  0  0  0
  1  5  2  0  0  0  0
  2  3  2  0  0  0  0
  2  7  1  0  0  0  0
  3 10  1  0  0  0  0
  4 11  2  0  0  0  0
  5 14  1  0  0  0  0
  6 11  1  0  0  0  0
  6 14  2  0  0  0  0
  7 18  2  0  0  0  0
  8 10  2  0  0  0  0
  8 17  1  0  0  0  0
  9 13  1  0  0  0  0
  9 17  2  0  0  0  0
 10 12  1  0  0  0  0
 11 16  1  0  0  0  0
 12 13  2  0  0  0  0
 12 18  1  0  0  0  0
 13 19  1  0  0  0  0
 14 21  1  0  0  0  0
 15 16  1  0  0  0  0
 15 19  1  0  0  0  0
 15 20  2  0  0  0  0
  1 22  1  0  0  0  0
  2 23  1  0  0  0  0
  3 24  1  0  0  0  0
  4 25  1  0  0  0  0
  5 26  1  0  0  0  0
  6 27  1  0  0  0  0
  7 28  1  0  0  0  0
  8 29  1  0  0  0  0
  9 30  1  0  0  0  0
 16 31  1  0  0  0  0
 16 32  1  0  0  0  0
 19 33  1  0  0  0  0
M  END
> <compound>
MAT-POS-bb423b95-2

> <compound_smiles>
c1cc(cc(c1)Cl)CC(=O)Nc2cncc3c2nccc3

> <enantiomer_smiles>
c1cc(cc(c1)Cl)CC(=O)Nc2cncc3c2nccc3

> <scaffold>
chlorobenzene-linker

> <canonical_CID>
MAT-POS-bb423b95-2

> <r_inhibition_at_20_uM>

> <r_inhibition_at_50_uM>

> <r_avg_IC50>
6.21925304679007

> <f_inhibition_at_20_uM>

> <f_inhibition_at_50_uM>

> <f_avg_IC50>
7.01875264650223

> <f_avg_pIC50>

> <relative_solubility_at_20_uM>

> <relative_solubility_at_100_uM>

> <trypsin_IC50>

> <NMR_std_ratio>

> <acrylamide>
False

> <chloroacetamide>
False

> <series>
3-aminopyridine-like

> <frag_id>
x11530

> <clash_score>
0.6156757688939836

> <docking_score>
-6.9210920333862305

> <overlap_score>
0.8965491056442261

> <MMFF_internal_energy>
94.89393693971206

> <docked_smiles>
c1cc(cc(c1)Cl)CC(=O)Nc2cncc3c2nccc3

$$$$
