MAT-POS-bb423b95-6_1
  -OEChem-07022116353D

 35 37  0     0  0  0  0  0  0999 V2000
    5.7356    3.2708   21.0297 C   0  0  0  0  0  0  0  0  0  0  0  0
    5.1354    3.8513   19.9164 C   0  0  0  0  0  0  0  0  0  0  0  0
   11.9780    0.4600   23.9150 C   0  0  0  0  0  0  0  0  0  0  0  0
    6.2437    1.9700   20.9599 C   0  0  0  0  0  0  0  0  0  0  0  0
    5.0395    3.1346   18.7268 C   0  0  0  0  0  0  0  0  0  0  0  0
   10.6560    0.0720   23.7350 C   0  0  0  0  0  0  0  0  0  0  0  0
   12.9840   -0.1200   23.1530 C   0  0  0  0  0  0  0  0  0  0  0  0
   11.3360   -1.5050   22.0650 C   0  0  0  0  0  0  0  0  0  0  0  0
    6.1598    1.2258   19.7727 C   0  0  0  0  0  0  0  0  0  0  0  0
    5.5480    1.8312   18.6556 C   0  0  0  0  0  0  0  0  0  0  0  0
   10.3220   -0.8940   22.7910 C   0  0  0  0  0  0  0  0  0  0  0  0
   12.6400   -1.1000   22.2390 C   0  0  0  0  0  0  0  0  0  0  0  0
    6.5526   -0.7806   18.4684 C   0  0  0  0  0  0  0  0  0  0  0  0
    6.6808   -0.1525   19.6456 C   0  0  0  0  0  0  0  0  0  0  0  0
    5.4358    1.0817   17.3753 C   0  0  0  0  0  0  0  0  0  0  0  0
    8.3880   -0.3240   21.3070 C   0  0  0  0  0  0  0  0  0  0  0  0
    8.8810   -1.1900   22.4510 C   0  0  0  0  0  0  0  0  0  0  0  0
    5.9599   -0.1988   17.3804 N   0  0  0  0  0  0  0  0  0  0  0  0
    7.2820   -0.7860   20.6970 N   0  0  0  0  0  0  0  0  0  0  0  0
    4.9075    1.5896   16.3911 O   0  0  0  0  0  0  0  0  0  0  0  0
    8.9170    0.7530   21.0260 O   0  0  0  0  0  0  0  0  0  0  0  0
   13.8840   -1.8490   21.2740 Cl  0  0  0  0  0  0  0  0  0  0  0  0
    5.8095    3.8300   21.9581 H   0  0  0  0  0  0  0  0  0  0  0  0
    4.7417    4.8618   19.9759 H   0  0  0  0  0  0  0  0  0  0  0  0
   12.2249    1.2198   24.6546 H   0  0  0  0  0  0  0  0  0  0  0  0
    6.7023    1.5632   21.8568 H   0  0  0  0  0  0  0  0  0  0  0  0
    4.5665    3.6049   17.8693 H   0  0  0  0  0  0  0  0  0  0  0  0
    9.8763    0.5350   24.3454 H   0  0  0  0  0  0  0  0  0  0  0  0
   14.0077    0.1988   23.2842 H   0  0  0  0  0  0  0  0  0  0  0  0
   11.0892   -2.3009   21.3624 H   0  0  0  0  0  0  0  0  0  0  0  0
    6.9107   -1.7909   18.3029 H   0  0  0  0  0  0  0  0  0  0  0  0
    8.2535   -1.0146   23.3240 H   0  0  0  0  0  0  0  0  0  0  0  0
    8.7756   -2.2377   22.1724 H   0  0  0  0  0  0  0  0  0  0  0  0
    5.9064   -0.7485   16.5279 H   0  0  0  0  0  0  0  0  0  0  0  0
    6.8585   -1.6466   21.0208 H   0  0  0  0  0  0  0  0  0  0  0  0
  1  2  1  0  0  0  0
  1  4  2  0  0  0  0
  2  5  2  0  0  0  0
  3  6  2  0  0  0  0
  3  7  1  0  0  0  0
  4  9  1  0  0  0  0
  5 10  1  0  0  0  0
  6 11  1  0  0  0  0
  7 12  2  0  0  0  0
  8 11  2  0  0  0  0
  8 12  1  0  0  0  0
  9 10  2  0  0  0  0
  9 14  1  0  0  0  0
 10 15  1  0  0  0  0
 11 17  1  0  0  0  0
 12 22  1  0  0  0  0
 13 14  2  0  0  0  0
 13 18  1  0  0  0  0
 14 19  1  0  0  0  0
 15 18  1  0  0  0  0
 15 20  2  0  0  0  0
 16 17  1  0  0  0  0
 16 19  1  0  0  0  0
 16 21  2  0  0  0  0
  1 23  1  0  0  0  0
  2 24  1  0  0  0  0
  3 25  1  0  0  0  0
  4 26  1  0  0  0  0
  5 27  1  0  0  0  0
  6 28  1  0  0  0  0
  7 29  1  0  0  0  0
  8 30  1  0  0  0  0
 13 31  1  0  0  0  0
 17 32  1  0  0  0  0
 17 33  1  0  0  0  0
 18 34  1  0  0  0  0
 19 35  1  0  0  0  0
M  END
> <compound>
MAT-POS-bb423b95-6

> <compound_smiles>
c1ccc2c(c1)c(c[nH]c2=O)NC(=O)Cc3cccc(c3)Cl

> <enantiomer_smiles>
c1ccc2c(c1)c(c[nH]c2=O)NC(=O)Cc3cccc(c3)Cl

> <scaffold>
chlorobenzene-linker

> <canonical_CID>
MAT-POS-bb423b95-6

> <r_inhibition_at_20_uM>

> <r_inhibition_at_50_uM>

> <r_avg_IC50>

> <f_inhibition_at_20_uM>

> <f_inhibition_at_50_uM>

> <f_avg_IC50>
99.5

> <f_avg_pIC50>

> <relative_solubility_at_20_uM>

> <relative_solubility_at_100_uM>

> <trypsin_IC50>

> <NMR_std_ratio>

> <acrylamide>
False

> <chloroacetamide>
False

> <series>
3-aminopyridine-like

> <frag_id>

> <clash_score>
0.6851712973595664

> <docking_score>
-4.199223518371582

> <overlap_score>
0.8323191404342651

> <MMFF_internal_energy>
79.12068198949027

> <docked_smiles>
c1ccc2c(c1)c(c[nH]c2=O)NC(=O)Cc3cccc(c3)Cl

$$$$
