MAT-POS-14ad9fe9-1_1
  -OEChem-07022116353D

 37 39  0     0  0  0  0  0  0999 V2000
   11.9780    0.4600   23.9150 C   0  0  0  0  0  0  0  0  0  0  0  0
   10.6560    0.0720   23.7350 C   0  0  0  0  0  0  0  0  0  0  0  0
   12.9840   -0.1200   23.1530 C   0  0  0  0  0  0  0  0  0  0  0  0
   11.3360   -1.5050   22.0650 C   0  0  0  0  0  0  0  0  0  0  0  0
    5.2725    0.7504   17.4444 C   0  0  0  0  0  0  0  0  0  0  0  0
    6.4507   -0.9459   18.4502 C   0  0  0  0  0  0  0  0  0  0  0  0
    6.0213    1.0499   19.6847 C   0  0  0  0  0  0  0  0  0  0  0  0
   10.3220   -0.8940   22.7910 C   0  0  0  0  0  0  0  0  0  0  0  0
    5.3606    1.5740   18.5625 C   0  0  0  0  0  0  0  0  0  0  0  0
    6.5902   -0.2241   19.6232 C   0  0  0  0  0  0  0  0  0  0  0  0
   12.6400   -1.1000   22.2390 C   0  0  0  0  0  0  0  0  0  0  0  0
    8.3880   -0.3240   21.3070 C   0  0  0  0  0  0  0  0  0  0  0  0
    6.1558    1.8787   20.9369 C   0  0  0  0  0  0  0  0  0  0  0  0
    5.0826    2.9657   21.0008 C   0  0  0  0  0  0  0  0  0  0  0  0
    5.0127    3.7333   19.6846 C   0  0  0  0  0  0  0  0  0  0  0  0
    8.8810   -1.1900   22.4510 C   0  0  0  0  0  0  0  0  0  0  0  0
    5.8006   -0.4924   17.3581 N   0  0  0  0  0  0  0  0  0  0  0  0
    4.7769    2.8291   18.5751 N   0  0  0  0  0  0  0  0  0  0  0  0
    7.2820   -0.7860   20.6970 N   0  0  0  0  0  0  0  0  0  0  0  0
    8.9170    0.7530   21.0260 O   0  0  0  0  0  0  0  0  0  0  0  0
   13.8840   -1.8490   21.2740 Cl  0  0  0  0  0  0  0  0  0  0  0  0
   12.2249    1.2198   24.6546 H   0  0  0  0  0  0  0  0  0  0  0  0
    9.8763    0.5350   24.3454 H   0  0  0  0  0  0  0  0  0  0  0  0
   14.0077    0.1988   23.2842 H   0  0  0  0  0  0  0  0  0  0  0  0
   11.0892   -2.3009   21.3624 H   0  0  0  0  0  0  0  0  0  0  0  0
    4.7498    1.0770   16.5497 H   0  0  0  0  0  0  0  0  0  0  0  0
    6.8688   -1.9428   18.3457 H   0  0  0  0  0  0  0  0  0  0  0  0
    6.0650    1.2160   21.8063 H   0  0  0  0  0  0  0  0  0  0  0  0
    7.1366    2.3655   20.9821 H   0  0  0  0  0  0  0  0  0  0  0  0
    4.1101    2.5129   21.2245 H   0  0  0  0  0  0  0  0  0  0  0  0
    5.3052    3.6636   21.8187 H   0  0  0  0  0  0  0  0  0  0  0  0
    4.2070    4.4759   19.7242 H   0  0  0  0  0  0  0  0  0  0  0  0
    5.9489    4.2761   19.5170 H   0  0  0  0  0  0  0  0  0  0  0  0
    8.7774   -2.2383   22.1732 H   0  0  0  0  0  0  0  0  0  0  0  0
    8.2557   -1.0153   23.3257 H   0  0  0  0  0  0  0  0  0  0  0  0
    4.0204    3.0276   17.9309 H   0  0  0  0  0  0  0  0  0  0  0  0
    6.8983   -1.6627   21.0682 H   0  0  0  0  0  0  0  0  0  0  0  0
  1  2  1  0  0  0  0
  1  3  2  0  0  0  0
  2  8  2  0  0  0  0
  3 11  1  0  0  0  0
  4  8  1  0  0  0  0
  4 11  2  0  0  0  0
  5  9  2  0  0  0  0
  5 17  1  0  0  0  0
  6 10  1  0  0  0  0
  6 17  2  0  0  0  0
  7  9  1  0  0  0  0
  7 10  2  0  0  0  0
  7 13  1  0  0  0  0
  8 16  1  0  0  0  0
  9 18  1  0  0  0  0
 10 19  1  0  0  0  0
 11 21  1  0  0  0  0
 12 16  1  0  0  0  0
 12 19  1  0  0  0  0
 12 20  2  0  0  0  0
 13 14  1  0  0  0  0
 14 15  1  0  0  0  0
 15 18  1  0  0  0  0
  1 22  1  0  0  0  0
  2 23  1  0  0  0  0
  3 24  1  0  0  0  0
  4 25  1  0  0  0  0
  5 26  1  0  0  0  0
  6 27  1  0  0  0  0
 13 28  1  0  0  0  0
 13 29  1  0  0  0  0
 14 30  1  0  0  0  0
 14 31  1  0  0  0  0
 15 32  1  0  0  0  0
 15 33  1  0  0  0  0
 16 34  1  0  0  0  0
 16 35  1  0  0  0  0
 18 36  1  0  0  0  0
 19 37  1  0  0  0  0
M  END
> <compound>
MAT-POS-14ad9fe9-1

> <compound_smiles>
c1cc(cc(c1)Cl)CC(=O)Nc2cncc3c2CCCN3

> <enantiomer_smiles>
c1cc(cc(c1)Cl)CC(=O)Nc2cncc3c2CCCN3

> <scaffold>
chlorobenzene-linker

> <canonical_CID>
MAT-POS-14ad9fe9-1

> <r_inhibition_at_20_uM>

> <r_inhibition_at_50_uM>

> <r_avg_IC50>
4.03950730516133

> <f_inhibition_at_20_uM>

> <f_inhibition_at_50_uM>

> <f_avg_IC50>
7.27197662949492

> <f_avg_pIC50>

> <relative_solubility_at_20_uM>

> <relative_solubility_at_100_uM>

> <trypsin_IC50>

> <NMR_std_ratio>

> <acrylamide>
False

> <chloroacetamide>
False

> <series>
3-aminopyridine-like

> <frag_id>

> <clash_score>
0.6826241196356383

> <docking_score>
-6.577842712402344

> <overlap_score>
0.8442780375480652

> <MMFF_internal_energy>
86.35346716834971

> <docked_smiles>
c1cc(cc(c1)Cl)CC(=O)Nc2cncc3c2CCCN3

$$$$
