PET-UNK-8df914d1-2_1
  -OEChem-07022116353D

 33 35  0     0  0  0  0  0  0999 V2000
   11.9780    0.4600   23.9150 C   0  0  0  0  0  0  0  0  0  0  0  0
   10.6560    0.0720   23.7350 C   0  0  0  0  0  0  0  0  0  0  0  0
   12.9840   -0.1200   23.1530 C   0  0  0  0  0  0  0  0  0  0  0  0
   11.3360   -1.5050   22.0650 C   0  0  0  0  0  0  0  0  0  0  0  0
    5.4902   -0.3867   18.9879 C   0  0  0  0  0  0  0  0  0  0  0  0
   10.3220   -0.8940   22.7910 C   0  0  0  0  0  0  0  0  0  0  0  0
   12.6400   -1.1000   22.2390 C   0  0  0  0  0  0  0  0  0  0  0  0
    6.2597    0.0083   20.0509 C   0  0  0  0  0  0  0  0  0  0  0  0
    4.8873    1.6707   19.5254 C   0  0  0  0  0  0  0  0  0  0  0  0
    4.2653    3.0189   19.6318 C   0  0  0  0  0  0  0  0  0  0  0  0
    4.7465    3.8064   20.6099 C   0  0  0  0  0  0  0  0  0  0  0  0
    5.8110    3.3324   21.4899 C   0  0  0  0  0  0  0  0  0  0  0  0
    6.3554    2.1067   21.3702 C   0  0  0  0  0  0  0  0  0  0  0  0
    8.3880   -0.3240   21.3070 C   0  0  0  0  0  0  0  0  0  0  0  0
    8.8810   -1.1900   22.4510 C   0  0  0  0  0  0  0  0  0  0  0  0
    5.8680    1.2919   20.3696 N   0  0  0  0  0  0  0  0  0  0  0  0
    4.6513    0.6603   18.6846 N   0  3  0  0  0  0  0  0  0  0  0  0
    7.2820   -0.7860   20.6970 N   0  0  0  0  0  0  0  0  0  0  0  0
    8.9170    0.7530   21.0260 O   0  0  0  0  0  0  0  0  0  0  0  0
   13.8840   -1.8490   21.2740 Cl  0  0  0  0  0  0  0  0  0  0  0  0
   12.2249    1.2198   24.6546 H   0  0  0  0  0  0  0  0  0  0  0  0
    9.8763    0.5350   24.3454 H   0  0  0  0  0  0  0  0  0  0  0  0
   14.0077    0.1988   23.2842 H   0  0  0  0  0  0  0  0  0  0  0  0
   11.0892   -2.3009   21.3624 H   0  0  0  0  0  0  0  0  0  0  0  0
    5.4097   -1.2713   18.3872 H   0  0  0  0  0  0  0  0  0  0  0  0
    3.4782    3.3223   18.9548 H   0  0  0  0  0  0  0  0  0  0  0  0
    4.3587    4.8061   20.7683 H   0  0  0  0  0  0  0  0  0  0  0  0
    6.1577    4.0142   22.2592 H   0  0  0  0  0  0  0  0  0  0  0  0
    7.1448    1.7345   22.0098 H   0  0  0  0  0  0  0  0  0  0  0  0
    8.7774   -2.2383   22.1732 H   0  0  0  0  0  0  0  0  0  0  0  0
    8.2557   -1.0153   23.3257 H   0  0  0  0  0  0  0  0  0  0  0  0
    3.9612    0.6648   17.9385 H   0  0  0  0  0  0  0  0  0  0  0  0
    7.1527   -1.7824   20.6892 H   0  0  0  0  0  0  0  0  0  0  0  0
  1  2  2  0  0  0  0
  1  3  1  0  0  0  0
  2  6  1  0  0  0  0
  3  7  2  0  0  0  0
  4  6  2  0  0  0  0
  4  7  1  0  0  0  0
  5  8  2  0  0  0  0
  5 17  1  0  0  0  0
  6 15  1  0  0  0  0
  7 20  1  0  0  0  0
  8 16  1  0  0  0  0
  8 18  1  0  0  0  0
  9 10  1  0  0  0  0
  9 16  1  0  0  0  0
  9 17  2  0  0  0  0
 10 11  2  0  0  0  0
 11 12  1  0  0  0  0
 12 13  2  0  0  0  0
 13 16  1  0  0  0  0
 14 15  1  0  0  0  0
 14 18  1  0  0  0  0
 14 19  2  0  0  0  0
  1 21  1  0  0  0  0
  2 22  1  0  0  0  0
  3 23  1  0  0  0  0
  4 24  1  0  0  0  0
  5 25  1  0  0  0  0
 10 26  1  0  0  0  0
 11 27  1  0  0  0  0
 12 28  1  0  0  0  0
 13 29  1  0  0  0  0
 15 30  1  0  0  0  0
 15 31  1  0  0  0  0
 17 32  1  0  0  0  0
 18 33  1  0  0  0  0
M  CHG  1  17   1
M  END
> <compound>
PET-UNK-8df914d1-2

> <compound_smiles>
c1ccn2c(c1)ncc2NC(=O)Cc3cccc(c3)Cl

> <enantiomer_smiles>
c1ccn2c(c1)ncc2NC(=O)Cc3cccc(c3)Cl

> <scaffold>
chlorobenzene-linker

> <canonical_CID>
PET-UNK-8df914d1-2

> <r_inhibition_at_20_uM>

> <r_inhibition_at_50_uM>

> <r_avg_IC50>

> <f_inhibition_at_20_uM>

> <f_inhibition_at_50_uM>

> <f_avg_IC50>
8.03394500289595

> <f_avg_pIC50>

> <relative_solubility_at_20_uM>

> <relative_solubility_at_100_uM>

> <trypsin_IC50>

> <NMR_std_ratio>

> <acrylamide>
False

> <chloroacetamide>
False

> <series>
3-aminopyridine-like

> <frag_id>
x11454

> <clash_score>
0

> <docking_score>
-6.159751892089844

> <overlap_score>
0.8071626424789429

> <MMFF_internal_energy>
40.49026802269588

> <docked_smiles>
c1ccn2c(c1)[nH+]cc2NC(=O)Cc3cccc(c3)Cl

$$$$
