RAL-THA-2d450e86-19_1
  -OEChem-07022116353D

 34 36  0     0  0  0  0  0  0999 V2000
    4.8624    3.6148   19.7221 C   0  0  0  0  0  0  0  0  0  0  0  0
    5.5348    3.1330   20.8427 C   0  0  0  0  0  0  0  0  0  0  0  0
   11.9780    0.4600   23.9150 C   0  0  0  0  0  0  0  0  0  0  0  0
    4.7639    2.8279   18.5748 C   0  0  0  0  0  0  0  0  0  0  0  0
    6.1120    1.8621   20.8212 C   0  0  0  0  0  0  0  0  0  0  0  0
   10.6560    0.0720   23.7350 C   0  0  0  0  0  0  0  0  0  0  0  0
   12.9840   -0.1200   23.1530 C   0  0  0  0  0  0  0  0  0  0  0  0
    5.2724    0.7181   17.4208 C   0  0  0  0  0  0  0  0  0  0  0  0
    6.4587   -0.9561   18.4527 C   0  0  0  0  0  0  0  0  0  0  0  0
    5.3407    1.5475   18.5420 C   0  0  0  0  0  0  0  0  0  0  0  0
    6.0224    1.0562   19.6745 C   0  0  0  0  0  0  0  0  0  0  0  0
   10.3220   -0.8940   22.7910 C   0  0  0  0  0  0  0  0  0  0  0  0
    6.5902   -0.2221   19.6216 C   0  0  0  0  0  0  0  0  0  0  0  0
   11.3360   -1.5050   22.0650 C   0  0  0  0  0  0  0  0  0  0  0  0
   12.6400   -1.1000   22.2390 C   0  0  0  0  0  0  0  0  0  0  0  0
    8.3880   -0.3240   21.3070 C   0  0  0  0  0  0  0  0  0  0  0  0
    8.8810   -1.1900   22.4510 C   0  0  0  0  0  0  0  0  0  0  0  0
    5.8141   -0.5188   17.3500 N   0  0  0  0  0  0  0  0  0  0  0  0
    7.2820   -0.7860   20.6970 N   0  0  0  0  0  0  0  0  0  0  0  0
    8.9170    0.7530   21.0260 O   0  0  0  0  0  0  0  0  0  0  0  0
   11.0339   -2.4881   21.1996 F   0  0  0  0  0  0  0  0  0  0  0  0
   13.8840   -1.8490   21.2740 Cl  0  0  0  0  0  0  0  0  0  0  0  0
    4.4141    4.6038   19.7417 H   0  0  0  0  0  0  0  0  0  0  0  0
    5.6102    3.7474   21.7354 H   0  0  0  0  0  0  0  0  0  0  0  0
   12.2252    1.2198   24.6545 H   0  0  0  0  0  0  0  0  0  0  0  0
    4.2352    3.2195   17.7088 H   0  0  0  0  0  0  0  0  0  0  0  0
    6.6291    1.5215   21.7152 H   0  0  0  0  0  0  0  0  0  0  0  0
    9.8771    0.5358   24.3458 H   0  0  0  0  0  0  0  0  0  0  0  0
   14.0073    0.1994   23.2846 H   0  0  0  0  0  0  0  0  0  0  0  0
    4.7622    1.0349   16.5153 H   0  0  0  0  0  0  0  0  0  0  0  0
    6.8808   -1.9530   18.3618 H   0  0  0  0  0  0  0  0  0  0  0  0
    8.7775   -2.2383   22.1732 H   0  0  0  0  0  0  0  0  0  0  0  0
    8.2557   -1.0153   23.3257 H   0  0  0  0  0  0  0  0  0  0  0  0
    6.8981   -1.6619   21.0675 H   0  0  0  0  0  0  0  0  0  0  0  0
  1  2  1  0  0  0  0
  1  4  2  0  0  0  0
  2  5  2  0  0  0  0
  3  6  2  0  0  0  0
  3  7  1  0  0  0  0
  4 10  1  0  0  0  0
  5 11  1  0  0  0  0
  6 12  1  0  0  0  0
  7 15  2  0  0  0  0
  8 10  2  0  0  0  0
  8 18  1  0  0  0  0
  9 13  1  0  0  0  0
  9 18  2  0  0  0  0
 10 11  1  0  0  0  0
 11 13  2  0  0  0  0
 12 14  2  0  0  0  0
 12 17  1  0  0  0  0
 13 19  1  0  0  0  0
 14 15  1  0  0  0  0
 14 21  1  0  0  0  0
 15 22  1  0  0  0  0
 16 17  1  0  0  0  0
 16 19  1  0  0  0  0
 16 20  2  0  0  0  0
  1 23  1  0  0  0  0
  2 24  1  0  0  0  0
  3 25  1  0  0  0  0
  4 26  1  0  0  0  0
  5 27  1  0  0  0  0
  6 28  1  0  0  0  0
  7 29  1  0  0  0  0
  8 30  1  0  0  0  0
  9 31  1  0  0  0  0
 17 32  1  0  0  0  0
 17 33  1  0  0  0  0
 19 34  1  0  0  0  0
M  END
> <compound>
RAL-THA-2d450e86-19

> <compound_smiles>
c1ccc2c(c1)cncc2NC(=O)Cc3cccc(c3F)Cl

> <enantiomer_smiles>
c1ccc2c(c1)cncc2NC(=O)Cc3cccc(c3F)Cl

> <scaffold>
chlorobenzene-linker

> <canonical_CID>
RAL-THA-2d450e86-19

> <r_inhibition_at_20_uM>

> <r_inhibition_at_50_uM>

> <r_avg_IC50>

> <f_inhibition_at_20_uM>

> <f_inhibition_at_50_uM>

> <f_avg_IC50>
23.5559554363504

> <f_avg_pIC50>

> <relative_solubility_at_20_uM>

> <relative_solubility_at_100_uM>

> <trypsin_IC50>

> <NMR_std_ratio>

> <acrylamide>
False

> <chloroacetamide>
False

> <series>
3-aminopyridine-like

> <frag_id>

> <clash_score>
0.6448568279069334

> <docking_score>
-5.181055545806885

> <overlap_score>
0.8544653058052063

> <MMFF_internal_energy>
97.99178963491103

> <docked_smiles>
c1ccc2c(c1)cncc2NC(=O)Cc3cccc(c3F)Cl

$$$$
