RUB-POS-1325a9ea-5_1
  -OEChem-07022116353D

 37 39  0     0  0  0  0  0  0999 V2000
    5.5361    3.1336   20.8422 C   0  0  0  0  0  0  0  0  0  0  0  0
   11.9780    0.4600   23.9150 C   0  0  0  0  0  0  0  0  0  0  0  0
    6.1126    1.8624   20.8209 C   0  0  0  0  0  0  0  0  0  0  0  0
    4.8643    3.6157   19.7213 C   0  0  0  0  0  0  0  0  0  0  0  0
   10.6560    0.0720   23.7350 C   0  0  0  0  0  0  0  0  0  0  0  0
   12.9840   -0.1200   23.1530 C   0  0  0  0  0  0  0  0  0  0  0  0
   11.3360   -1.5050   22.0650 C   0  0  0  0  0  0  0  0  0  0  0  0
    5.2736    0.7187   17.4203 C   0  0  0  0  0  0  0  0  0  0  0  0
    6.4587   -0.9561   18.4526 C   0  0  0  0  0  0  0  0  0  0  0  0
    6.0230    1.0565   19.6742 C   0  0  0  0  0  0  0  0  0  0  0  0
    5.3420    1.5481   18.5414 C   0  0  0  0  0  0  0  0  0  0  0  0
   10.3220   -0.8940   22.7910 C   0  0  0  0  0  0  0  0  0  0  0  0
    4.7658    2.8288   18.5741 C   0  0  0  0  0  0  0  0  0  0  0  0
    6.5902   -0.2221   19.6216 C   0  0  0  0  0  0  0  0  0  0  0  0
   12.6400   -1.1000   22.2390 C   0  0  0  0  0  0  0  0  0  0  0  0
    8.3880   -0.3240   21.3070 C   0  0  0  0  0  0  0  0  0  0  0  0
    4.0326    3.3968   17.3998 C   0  0  0  0  0  0  0  0  0  0  0  0
    8.8810   -1.1900   22.4510 C   0  0  0  0  0  0  0  0  0  0  0  0
    5.8146   -0.5185   17.3498 N   0  0  0  0  0  0  0  0  0  0  0  0
    7.2820   -0.7860   20.6970 N   0  0  0  0  0  0  0  0  0  0  0  0
    8.9170    0.7530   21.0260 O   0  0  0  0  0  0  0  0  0  0  0  0
   13.8840   -1.8490   21.2740 Cl  0  0  0  0  0  0  0  0  0  0  0  0
    5.6116    3.7478   21.7348 H   0  0  0  0  0  0  0  0  0  0  0  0
   12.2249    1.2198   24.6546 H   0  0  0  0  0  0  0  0  0  0  0  0
    6.6291    1.5211   21.7152 H   0  0  0  0  0  0  0  0  0  0  0  0
    4.4197    4.6070   19.7517 H   0  0  0  0  0  0  0  0  0  0  0  0
    9.8763    0.5350   24.3454 H   0  0  0  0  0  0  0  0  0  0  0  0
   14.0077    0.1988   23.2842 H   0  0  0  0  0  0  0  0  0  0  0  0
   11.0892   -2.3009   21.3624 H   0  0  0  0  0  0  0  0  0  0  0  0
    4.7671    1.0234   16.5091 H   0  0  0  0  0  0  0  0  0  0  0  0
    6.8799   -1.9532   18.3619 H   0  0  0  0  0  0  0  0  0  0  0  0
    4.7253    3.9439   16.7515 H   0  0  0  0  0  0  0  0  0  0  0  0
    3.5539    2.6041   16.8138 H   0  0  0  0  0  0  0  0  0  0  0  0
    3.2397    4.0805   17.7242 H   0  0  0  0  0  0  0  0  0  0  0  0
    8.7774   -2.2383   22.1732 H   0  0  0  0  0  0  0  0  0  0  0  0
    8.2557   -1.0153   23.3257 H   0  0  0  0  0  0  0  0  0  0  0  0
    6.8981   -1.6619   21.0675 H   0  0  0  0  0  0  0  0  0  0  0  0
  1  3  1  0  0  0  0
  1  4  2  0  0  0  0
  2  5  2  0  0  0  0
  2  6  1  0  0  0  0
  3 10  2  0  0  0  0
  4 13  1  0  0  0  0
  5 12  1  0  0  0  0
  6 15  2  0  0  0  0
  7 12  2  0  0  0  0
  7 15  1  0  0  0  0
  8 11  1  0  0  0  0
  8 19  2  0  0  0  0
  9 14  2  0  0  0  0
  9 19  1  0  0  0  0
 10 11  1  0  0  0  0
 10 14  1  0  0  0  0
 11 13  2  0  0  0  0
 12 18  1  0  0  0  0
 13 17  1  0  0  0  0
 14 20  1  0  0  0  0
 15 22  1  0  0  0  0
 16 18  1  0  0  0  0
 16 20  1  0  0  0  0
 16 21  2  0  0  0  0
  1 23  1  0  0  0  0
  2 24  1  0  0  0  0
  3 25  1  0  0  0  0
  4 26  1  0  0  0  0
  5 27  1  0  0  0  0
  6 28  1  0  0  0  0
  7 29  1  0  0  0  0
  8 30  1  0  0  0  0
  9 31  1  0  0  0  0
 17 32  1  0  0  0  0
 17 33  1  0  0  0  0
 17 34  1  0  0  0  0
 18 35  1  0  0  0  0
 18 36  1  0  0  0  0
 20 37  1  0  0  0  0
M  END
> <compound>
RUB-POS-1325a9ea-5

> <compound_smiles>
Cc1cccc2c1cncc2NC(=O)Cc3cccc(c3)Cl

> <enantiomer_smiles>
Cc1cccc2c1cncc2NC(=O)Cc3cccc(c3)Cl

> <scaffold>
chlorobenzene-linker

> <canonical_CID>
RUB-POS-1325a9ea-5

> <r_inhibition_at_20_uM>

> <r_inhibition_at_50_uM>

> <r_avg_IC50>

> <f_inhibition_at_20_uM>

> <f_inhibition_at_50_uM>

> <f_avg_IC50>
99.5

> <f_avg_pIC50>

> <relative_solubility_at_20_uM>

> <relative_solubility_at_100_uM>

> <trypsin_IC50>

> <NMR_std_ratio>

> <acrylamide>
False

> <chloroacetamide>
False

> <series>
3-aminopyridine-like

> <frag_id>

> <clash_score>
1.3613690193778951

> <docking_score>
-4.429933071136475

> <overlap_score>
0.8439423441886902

> <MMFF_internal_energy>
102.90437609594423

> <docked_smiles>
Cc1cccc2c1cncc2NC(=O)Cc3cccc(c3)Cl

$$$$
