RUB-POS-1325a9ea-12_1
  -OEChem-07022116353D

 31 33  0     0  0  0  0  0  0999 V2000
   11.9780    0.4600   23.9150 C   0  0  0  0  0  0  0  0  0  0  0  0
   10.6560    0.0720   23.7350 C   0  0  0  0  0  0  0  0  0  0  0  0
   12.9840   -0.1200   23.1530 C   0  0  0  0  0  0  0  0  0  0  0  0
   11.3360   -1.5050   22.0650 C   0  0  0  0  0  0  0  0  0  0  0  0
    5.2692    0.8905   17.4062 C   0  0  0  0  0  0  0  0  0  0  0  0
    3.2845    0.9659   19.0959 C   0  0  0  0  0  0  0  0  0  0  0  0
    7.1824   -0.0165   18.3907 C   0  0  0  0  0  0  0  0  0  0  0  0
    4.5850    0.7180   18.6095 C   0  0  0  0  0  0  0  0  0  0  0  0
   10.3220   -0.8940   22.7910 C   0  0  0  0  0  0  0  0  0  0  0  0
    5.2590    0.1632   19.6905 C   0  0  0  0  0  0  0  0  0  0  0  0
    6.5901   -0.2292   19.6273 C   0  0  0  0  0  0  0  0  0  0  0  0
   12.6400   -1.1000   22.2390 C   0  0  0  0  0  0  0  0  0  0  0  0
    8.3880   -0.3240   21.3070 C   0  0  0  0  0  0  0  0  0  0  0  0
    8.8810   -1.1900   22.4510 C   0  0  0  0  0  0  0  0  0  0  0  0
    6.5697    0.5195   17.3070 N   0  0  0  0  0  0  0  0  0  0  0  0
    3.1318    0.6045   20.3720 N   0  0  0  0  0  0  0  0  0  0  0  0
    4.3415    0.1235   20.7051 N   0  0  0  0  0  0  0  0  0  0  0  0
    7.2820   -0.7860   20.6970 N   0  0  0  0  0  0  0  0  0  0  0  0
    8.9170    0.7530   21.0260 O   0  0  0  0  0  0  0  0  0  0  0  0
   13.8840   -1.8490   21.2740 Cl  0  0  0  0  0  0  0  0  0  0  0  0
   12.2249    1.2198   24.6546 H   0  0  0  0  0  0  0  0  0  0  0  0
    9.8763    0.5350   24.3454 H   0  0  0  0  0  0  0  0  0  0  0  0
   14.0077    0.1988   23.2842 H   0  0  0  0  0  0  0  0  0  0  0  0
   11.0892   -2.3009   21.3624 H   0  0  0  0  0  0  0  0  0  0  0  0
    4.8191    1.3154   16.5174 H   0  0  0  0  0  0  0  0  0  0  0  0
    2.4416    1.3945   18.5723 H   0  0  0  0  0  0  0  0  0  0  0  0
    8.2226   -0.2849   18.2235 H   0  0  0  0  0  0  0  0  0  0  0  0
    8.7774   -2.2383   22.1732 H   0  0  0  0  0  0  0  0  0  0  0  0
    8.2557   -1.0153   23.3257 H   0  0  0  0  0  0  0  0  0  0  0  0
    4.4765   -0.2196   21.6480 H   0  0  0  0  0  0  0  0  0  0  0  0
    6.8985   -1.6647   21.0700 H   0  0  0  0  0  0  0  0  0  0  0  0
  1  2  1  0  0  0  0
  1  3  2  0  0  0  0
  2  9  2  0  0  0  0
  3 12  1  0  0  0  0
  4  9  1  0  0  0  0
  4 12  2  0  0  0  0
  5  8  2  0  0  0  0
  5 15  1  0  0  0  0
  6  8  1  0  0  0  0
  6 16  2  0  0  0  0
  7 11  1  0  0  0  0
  7 15  2  0  0  0  0
  8 10  1  0  0  0  0
  9 14  1  0  0  0  0
 10 11  2  0  0  0  0
 10 17  1  0  0  0  0
 11 18  1  0  0  0  0
 12 20  1  0  0  0  0
 13 14  1  0  0  0  0
 13 18  1  0  0  0  0
 13 19  2  0  0  0  0
 16 17  1  0  0  0  0
  1 21  1  0  0  0  0
  2 22  1  0  0  0  0
  3 23  1  0  0  0  0
  4 24  1  0  0  0  0
  5 25  1  0  0  0  0
  6 26  1  0  0  0  0
  7 27  1  0  0  0  0
 14 28  1  0  0  0  0
 14 29  1  0  0  0  0
 17 30  1  0  0  0  0
 18 31  1  0  0  0  0
M  END
> <compound>
RUB-POS-1325a9ea-12

> <compound_smiles>
c1cc(cc(c1)Cl)CC(=O)Nc2cncc3c2[nH]nc3

> <enantiomer_smiles>
c1cc(cc(c1)Cl)CC(=O)Nc2cncc3c2[nH]nc3

> <scaffold>
chlorobenzene-linker

> <canonical_CID>
RUB-POS-1325a9ea-12

> <r_inhibition_at_20_uM>

> <r_inhibition_at_50_uM>

> <r_avg_IC50>

> <f_inhibition_at_20_uM>

> <f_inhibition_at_50_uM>

> <f_avg_IC50>
2.10357043346894

> <f_avg_pIC50>

> <relative_solubility_at_20_uM>

> <relative_solubility_at_100_uM>

> <trypsin_IC50>

> <NMR_std_ratio>

> <acrylamide>
False

> <chloroacetamide>
False

> <series>
3-aminopyridine-like

> <frag_id>

> <clash_score>
0

> <docking_score>
-6.446586608886719

> <overlap_score>
0.8826959729194641

> <MMFF_internal_energy>
81.97682375726113

> <docked_smiles>
c1cc(cc(c1)Cl)CC(=O)Nc2cncc3c2[nH]nc3

$$$$
