WIL-UNI-2e73223c-4_1
  -OEChem-07022116353D

 44 45  0     0  0  0  0  0  0999 V2000
   11.9780    0.4600   23.9150 C   0  0  0  0  0  0  0  0  0  0  0  0
   10.6560    0.0720   23.7350 C   0  0  0  0  0  0  0  0  0  0  0  0
   12.9840   -0.1200   23.1530 C   0  0  0  0  0  0  0  0  0  0  0  0
    4.9968    4.4505   23.3562 C   0  0  0  0  0  0  0  0  0  0  0  0
   11.3360   -1.5050   22.0650 C   0  0  0  0  0  0  0  0  0  0  0  0
    3.6501    4.3764   23.0390 C   0  0  0  0  0  0  0  0  0  0  0  0
    4.0003    2.6480   21.5665 C   0  0  0  0  0  0  0  0  0  0  0  0
   10.3220   -0.8940   22.7910 C   0  0  0  0  0  0  0  0  0  0  0  0
    5.8632    3.5628   22.7280 C   0  0  0  0  0  0  0  0  0  0  0  0
    5.3635    2.6412   21.8146 C   0  0  0  0  0  0  0  0  0  0  0  0
   12.6400   -1.1000   22.2390 C   0  0  0  0  0  0  0  0  0  0  0  0
    8.3880   -0.3240   21.3070 C   0  0  0  0  0  0  0  0  0  0  0  0
    7.3210    3.6132   23.0436 C   0  0  0  0  0  0  0  0  0  0  0  0
    8.7800   -2.6901   22.0469 C   0  0  0  0  0  0  0  0  0  0  0  0
    7.8867   -1.0026   23.6354 C   0  0  0  0  0  0  0  0  0  0  0  0
    6.6076   -0.0566   19.6485 C   0  0  0  0  0  0  0  0  0  0  0  0
    5.5573    0.8548   20.2567 C   0  0  0  0  0  0  0  0  0  0  0  0
    8.8810   -1.1900   22.4510 C   0  0  0  0  0  0  0  0  0  0  0  0
    3.1276    3.4949   22.1572 N   0  0  0  0  0  0  0  0  0  0  0  0
    7.2820   -0.7860   20.6970 N   0  0  0  0  0  0  0  0  0  0  0  0
    8.9170    0.7530   21.0260 O   0  0  0  0  0  0  0  0  0  0  0  0
    6.1799    1.7489   21.1705 O   0  0  0  0  0  0  0  0  0  0  0  0
   13.8840   -1.8490   21.2740 Cl  0  0  0  0  0  0  0  0  0  0  0  0
   12.2249    1.2198   24.6546 H   0  0  0  0  0  0  0  0  0  0  0  0
    9.8763    0.5350   24.3454 H   0  0  0  0  0  0  0  0  0  0  0  0
   14.0077    0.1988   23.2842 H   0  0  0  0  0  0  0  0  0  0  0  0
    5.3552    5.1811   24.0733 H   0  0  0  0  0  0  0  0  0  0  0  0
   11.0892   -2.3009   21.3624 H   0  0  0  0  0  0  0  0  0  0  0  0
    2.9329    5.0476   23.5000 H   0  0  0  0  0  0  0  0  0  0  0  0
    3.5546    1.9507   20.8641 H   0  0  0  0  0  0  0  0  0  0  0  0
    7.5516    2.9493   23.8853 H   0  0  0  0  0  0  0  0  0  0  0  0
    7.9253    3.3054   22.1809 H   0  0  0  0  0  0  0  0  0  0  0  0
    7.6358    4.6313   23.3060 H   0  0  0  0  0  0  0  0  0  0  0  0
    7.7552   -2.9851   21.7926 H   0  0  0  0  0  0  0  0  0  0  0  0
    9.1081   -3.3488   22.8600 H   0  0  0  0  0  0  0  0  0  0  0  0
    9.4084   -2.8993   21.1730 H   0  0  0  0  0  0  0  0  0  0  0  0
    6.8607   -1.2419   23.3301 H   0  0  0  0  0  0  0  0  0  0  0  0
    7.8777    0.0311   23.9992 H   0  0  0  0  0  0  0  0  0  0  0  0
    8.1338   -1.6505   24.4845 H   0  0  0  0  0  0  0  0  0  0  0  0
    6.1559   -0.7805   18.9629 H   0  0  0  0  0  0  0  0  0  0  0  0
    7.3548    0.5316   19.1071 H   0  0  0  0  0  0  0  0  0  0  0  0
    4.8228    0.2624   20.8111 H   0  0  0  0  0  0  0  0  0  0  0  0
    5.0389    1.4395   19.4899 H   0  0  0  0  0  0  0  0  0  0  0  0
    6.9059   -1.6839   20.9852 H   0  0  0  0  0  0  0  0  0  0  0  0
  1  2  2  0  0  0  0
  1  3  1  0  0  0  0
  2  8  1  0  0  0  0
  3 11  2  0  0  0  0
  4  6  2  0  0  0  0
  4  9  1  0  0  0  0
  5  8  2  0  0  0  0
  5 11  1  0  0  0  0
  6 19  1  0  0  0  0
  7 10  1  0  0  0  0
  7 19  2  0  0  0  0
  8 18  1  0  0  0  0
  9 10  2  0  0  0  0
  9 13  1  0  0  0  0
 10 22  1  0  0  0  0
 11 23  1  0  0  0  0
 12 18  1  0  0  0  0
 12 20  1  0  0  0  0
 12 21  2  0  0  0  0
 14 18  1  0  0  0  0
 15 18  1  0  0  0  0
 16 17  1  0  0  0  0
 16 20  1  0  0  0  0
 17 22  1  0  0  0  0
  1 24  1  0  0  0  0
  2 25  1  0  0  0  0
  3 26  1  0  0  0  0
  4 27  1  0  0  0  0
  5 28  1  0  0  0  0
  6 29  1  0  0  0  0
  7 30  1  0  0  0  0
 13 31  1  0  0  0  0
 13 32  1  0  0  0  0
 13 33  1  0  0  0  0
 14 34  1  0  0  0  0
 14 35  1  0  0  0  0
 14 36  1  0  0  0  0
 15 37  1  0  0  0  0
 15 38  1  0  0  0  0
 15 39  1  0  0  0  0
 16 40  1  0  0  0  0
 16 41  1  0  0  0  0
 17 42  1  0  0  0  0
 17 43  1  0  0  0  0
 20 44  1  0  0  0  0
M  END
> <compound>
WIL-UNI-2e73223c-4

> <compound_smiles>
Cc1ccncc1OCCNC(=O)C(C)(C)c2cccc(c2)Cl

> <enantiomer_smiles>
Cc1ccncc1OCCNC(=O)C(C)(C)c2cccc(c2)Cl

> <scaffold>
chlorobenzene-linker

> <canonical_CID>
WIL-UNI-2e73223c-4

> <r_inhibition_at_20_uM>

> <r_inhibition_at_50_uM>

> <r_avg_IC50>
99.0

> <f_inhibition_at_20_uM>

> <f_inhibition_at_50_uM>

> <f_avg_IC50>
99.5

> <f_avg_pIC50>

> <relative_solubility_at_20_uM>

> <relative_solubility_at_100_uM>

> <trypsin_IC50>

> <NMR_std_ratio>

> <acrylamide>
False

> <chloroacetamide>
False

> <series>

> <frag_id>

> <clash_score>
0

> <docking_score>
-6.445508003234863

> <overlap_score>
0.7180928587913513

> <MMFF_internal_energy>
96.75685349369105

> <docked_smiles>
Cc1ccncc1OCCNC(=O)C(C)(C)c2cccc(c2)Cl

$$$$
